
  xtb     03022214393D
 energy: -157.301770508239 gnorm: 0.000108332179 xtb: 6.4.1 (afa7bdf)
112120  0     0  0            999 V2000
   -9.2969    4.7966    1.9791 C   0  0  0  0  0  0  0  0  0  0  0  0
   -9.2489    3.3623    2.5244 C   0  0  0  0  0  0  0  0  0  0  0  0
   -9.0006    3.3889    4.0392 C   0  0  0  0  0  0  0  0  0  0  0  0
  -10.6145    2.7151    2.2780 C   0  0  0  0  0  0  0  0  0  0  0  0
   -8.1146    2.6088    1.8457 C   0  0  0  0  0  0  0  0  0  0  0  0
   -6.8061    3.0899    1.9801 C   0  0  0  0  0  0  0  0  0  0  0  0
   -5.7161    2.4767    1.3951 C   0  0  0  0  0  0  0  0  0  0  0  0
   -5.9387    1.3405    0.6336 C   0  0  0  0  0  0  0  0  0  0  0  0
   -7.2414    0.8170    0.5109 C   0  0  0  0  0  0  0  0  0  0  0  0
   -8.3200    1.4531    1.1096 C   0  0  0  0  0  0  0  0  0  0  0  0
   -7.1286   -0.3871   -0.2675 C   0  0  0  0  0  0  0  0  0  0  0  0
   -8.0664   -1.3016   -0.7268 C   0  0  0  0  0  0  0  0  0  0  0  0
   -7.6560   -2.3780   -1.4966 C   0  0  0  0  0  0  0  0  0  0  0  0
   -8.6244   -3.4257   -2.0251 C   0  0  0  0  0  0  0  0  0  0  0  0
   -8.2157   -4.8036   -1.4855 C   0  0  0  0  0  0  0  0  0  0  0  0
  -10.0704   -3.1584   -1.5983 C   0  0  0  0  0  0  0  0  0  0  0  0
   -8.5740   -3.4311   -3.5595 C   0  0  0  0  0  0  0  0  0  0  0  0
   -6.2952   -2.4959   -1.8070 C   0  0  0  0  0  0  0  0  0  0  0  0
   -5.3426   -1.5996   -1.3650 C   0  0  0  0  0  0  0  0  0  0  0  0
   -5.7612   -0.5461   -0.5681 C   0  0  0  0  0  0  0  0  0  0  0  0
   -5.0441    0.5090   -0.0229 N   0  0  0  0  0  0  0  0  0  0  0  0
   -3.6723    0.6990   -0.1207 C   0  0  0  0  0  0  0  0  0  0  0  0
   -3.1487    1.9609   -0.4213 C   0  0  0  0  0  0  0  0  0  0  0  0
   -1.7863    2.1394   -0.5125 C   0  0  0  0  0  0  0  0  0  0  0  0
   -0.9035    1.0770   -0.3140 C   0  0  0  0  0  0  0  0  0  0  0  0
   -1.4243   -0.1906   -0.0177 C   0  0  0  0  0  0  0  0  0  0  0  0
   -2.7969   -0.3669    0.0787 C   0  0  0  0  0  0  0  0  0  0  0  0
   -0.5486   -1.3642    0.2094 C   0  0  0  0  0  0  0  0  0  0  0  0
   -1.0059   -2.4695    0.4432 O   0  0  0  0  0  0  0  0  0  0  0  0
    0.8986   -1.1115    0.1349 C   0  0  0  0  0  0  0  0  0  0  0  0
    1.7821   -2.1657    0.3702 C   0  0  0  0  0  0  0  0  0  0  0  0
    3.1453   -1.9796    0.3134 C   0  0  0  0  0  0  0  0  0  0  0  0
    3.6693   -0.7161    0.0201 C   0  0  0  0  0  0  0  0  0  0  0  0
    5.0422   -0.5172   -0.0340 N   0  0  0  0  0  0  0  0  0  0  0  0
    5.9722   -0.9966    0.8759 C   0  0  0  0  0  0  0  0  0  0  0  0
    5.7934   -1.6940    2.0600 C   0  0  0  0  0  0  0  0  0  0  0  0
    6.9135   -2.0094    2.8031 C   0  0  0  0  0  0  0  0  0  0  0  0
    8.2105   -1.6466    2.4186 C   0  0  0  0  0  0  0  0  0  0  0  0
    9.3802   -2.0498    3.3041 C   0  0  0  0  0  0  0  0  0  0  0  0
   10.7274   -1.5795    2.7486 C   0  0  0  0  0  0  0  0  0  0  0  0
    9.4200   -3.5803    3.4172 C   0  0  0  0  0  0  0  0  0  0  0  0
    9.1966   -1.4292    4.6962 C   0  0  0  0  0  0  0  0  0  0  0  0
    8.3731   -0.9205    1.2497 C   0  0  0  0  0  0  0  0  0  0  0  0
    7.2636   -0.5908    0.4838 C   0  0  0  0  0  0  0  0  0  0  0  0
    7.1060    0.1637   -0.7304 C   0  0  0  0  0  0  0  0  0  0  0  0
    8.0145    0.7815   -1.5788 C   0  0  0  0  0  0  0  0  0  0  0  0
    7.5612    1.4272   -2.7176 C   0  0  0  0  0  0  0  0  0  0  0  0
    8.4964    2.1341   -3.6874 C   0  0  0  0  0  0  0  0  0  0  0  0
    8.3792    1.4776   -5.0702 C   0  0  0  0  0  0  0  0  0  0  0  0
    9.9619    2.0614   -3.2497 C   0  0  0  0  0  0  0  0  0  0  0  0
    8.0997    3.6144   -3.7780 C   0  0  0  0  0  0  0  0  0  0  0  0
    6.1870    1.4161   -2.9885 C   0  0  0  0  0  0  0  0  0  0  0  0
    5.2626    0.8077   -2.1630 C   0  0  0  0  0  0  0  0  0  0  0  0
    5.7252    0.1937   -1.0100 C   0  0  0  0  0  0  0  0  0  0  0  0
    2.7931    0.3414   -0.2174 C   0  0  0  0  0  0  0  0  0  0  0  0
    1.4195    0.1553   -0.1653 C   0  0  0  0  0  0  0  0  0  0  0  0
    0.5430    1.3220   -0.4226 C   0  0  0  0  0  0  0  0  0  0  0  0
    0.9990    2.4160   -0.7068 O   0  0  0  0  0  0  0  0  0  0  0  0
  -10.1159    5.3453    2.4396 H   0  0  0  0  0  0  0  0  0  0  0  0
   -9.4521    4.7839    0.9022 H   0  0  0  0  0  0  0  0  0  0  0  0
   -8.3733    5.3309    2.1836 H   0  0  0  0  0  0  0  0  0  0  0  0
   -8.0741    3.9017    4.2814 H   0  0  0  0  0  0  0  0  0  0  0  0
   -9.8159    3.9035    4.5434 H   0  0  0  0  0  0  0  0  0  0  0  0
   -8.9398    2.3743    4.4275 H   0  0  0  0  0  0  0  0  0  0  0  0
  -10.6471    1.7049    2.6794 H   0  0  0  0  0  0  0  0  0  0  0  0
  -10.8480    2.6862    1.2162 H   0  0  0  0  0  0  0  0  0  0  0  0
  -11.3867    3.2983    2.7758 H   0  0  0  0  0  0  0  0  0  0  0  0
   -6.6258    3.9759    2.5693 H   0  0  0  0  0  0  0  0  0  0  0  0
   -4.7228    2.8703    1.5490 H   0  0  0  0  0  0  0  0  0  0  0  0
   -9.3009    1.0238    0.9929 H   0  0  0  0  0  0  0  0  0  0  0  0
   -9.1024   -1.1477   -0.4759 H   0  0  0  0  0  0  0  0  0  0  0  0
   -8.2308   -4.8000   -0.3975 H   0  0  0  0  0  0  0  0  0  0  0  0
   -8.9086   -5.5648   -1.8381 H   0  0  0  0  0  0  0  0  0  0  0  0
   -7.2160   -5.0773   -1.8106 H   0  0  0  0  0  0  0  0  0  0  0  0
  -10.7154   -3.9402   -1.9946 H   0  0  0  0  0  0  0  0  0  0  0  0
  -10.1655   -3.1624   -0.5149 H   0  0  0  0  0  0  0  0  0  0  0  0
  -10.4232   -2.2051   -1.9851 H   0  0  0  0  0  0  0  0  0  0  0  0
   -9.2793   -4.1591   -3.9549 H   0  0  0  0  0  0  0  0  0  0  0  0
   -8.8373   -2.4491   -3.9475 H   0  0  0  0  0  0  0  0  0  0  0  0
   -7.5829   -3.6861   -3.9238 H   0  0  0  0  0  0  0  0  0  0  0  0
   -5.9618   -3.3177   -2.4218 H   0  0  0  0  0  0  0  0  0  0  0  0
   -4.3085   -1.7214   -1.6485 H   0  0  0  0  0  0  0  0  0  0  0  0
   -3.8205    2.7850   -0.6064 H   0  0  0  0  0  0  0  0  0  0  0  0
   -1.3702    3.1067   -0.7524 H   0  0  0  0  0  0  0  0  0  0  0  0
   -3.1707   -1.3455    0.3407 H   0  0  0  0  0  0  0  0  0  0  0  0
    1.3652   -3.1381    0.5874 H   0  0  0  0  0  0  0  0  0  0  0  0
    3.8163   -2.8105    0.4686 H   0  0  0  0  0  0  0  0  0  0  0  0
    4.8114   -1.9727    2.4111 H   0  0  0  0  0  0  0  0  0  0  0  0
    6.7672   -2.5558    3.7223 H   0  0  0  0  0  0  0  0  0  0  0  0
   10.9167   -2.0073    1.7668 H   0  0  0  0  0  0  0  0  0  0  0  0
   11.5258   -1.9010    3.4145 H   0  0  0  0  0  0  0  0  0  0  0  0
   10.7652   -0.4948    2.6798 H   0  0  0  0  0  0  0  0  0  0  0  0
    9.5315   -4.0268    2.4312 H   0  0  0  0  0  0  0  0  0  0  0  0
    8.5105   -3.9695    3.8661 H   0  0  0  0  0  0  0  0  0  0  0  0
   10.2622   -3.8888    4.0331 H   0  0  0  0  0  0  0  0  0  0  0  0
    8.2873   -1.7838    5.1732 H   0  0  0  0  0  0  0  0  0  0  0  0
   10.0384   -1.6873    5.3354 H   0  0  0  0  0  0  0  0  0  0  0  0
    9.1405   -0.3453    4.6197 H   0  0  0  0  0  0  0  0  0  0  0  0
    9.3441   -0.5934    0.9177 H   0  0  0  0  0  0  0  0  0  0  0  0
    9.0620    0.7383   -1.3317 H   0  0  0  0  0  0  0  0  0  0  0  0
    7.3708    1.5610   -5.4656 H   0  0  0  0  0  0  0  0  0  0  0  0
    9.0599    1.9563   -5.7711 H   0  0  0  0  0  0  0  0  0  0  0  0
    8.6343    0.4216   -5.0076 H   0  0  0  0  0  0  0  0  0  0  0  0
   10.1038    2.5304   -2.2787 H   0  0  0  0  0  0  0  0  0  0  0  0
   10.3063    1.0308   -3.2032 H   0  0  0  0  0  0  0  0  0  0  0  0
   10.5821    2.5895   -3.9712 H   0  0  0  0  0  0  0  0  0  0  0  0
    7.0847    3.7321   -4.1464 H   0  0  0  0  0  0  0  0  0  0  0  0
    8.7702    4.1414   -4.4537 H   0  0  0  0  0  0  0  0  0  0  0  0
    8.1619    4.0802   -2.7967 H   0  0  0  0  0  0  0  0  0  0  0  0
    5.8196    1.8977   -3.8816 H   0  0  0  0  0  0  0  0  0  0  0  0
    4.2159    0.8079   -2.4254 H   0  0  0  0  0  0  0  0  0  0  0  0
    3.1687    1.3338   -0.4180 H   0  0  0  0  0  0  0  0  0  0  0  0
  1  2  1  0  0  0  0
  2  3  1  0  0  0  0
  2  4  1  0  0  0  0
  2  5  1  0  0  0  0
  5  6  2  0  0  0  0
  6  7  1  0  0  0  0
  7  8  2  0  0  0  0
  8  9  1  0  0  0  0
  9 10  2  0  0  0  0
  9 11  1  0  0  0  0
 11 12  2  0  0  0  0
 12 13  1  0  0  0  0
 13 14  1  0  0  0  0
 14 15  1  0  0  0  0
 14 16  1  0  0  0  0
 14 17  1  0  0  0  0
 13 18  2  0  0  0  0
 18 19  1  0  0  0  0
 19 20  2  0  0  0  0
 20 21  1  0  0  0  0
 21 22  1  0  0  0  0
 22 23  2  0  0  0  0
 23 24  1  0  0  0  0
 24 25  2  0  0  0  0
 25 26  1  0  0  0  0
 26 27  2  0  0  0  0
 26 28  1  0  0  0  0
 28 29  2  0  0  0  0
 28 30  1  0  0  0  0
 30 31  2  0  0  0  0
 31 32  1  0  0  0  0
 32 33  2  0  0  0  0
 33 34  1  0  0  0  0
 34 35  1  0  0  0  0
 35 36  2  0  0  0  0
 36 37  1  0  0  0  0
 37 38  2  0  0  0  0
 38 39  1  0  0  0  0
 39 40  1  0  0  0  0
 39 41  1  0  0  0  0
 39 42  1  0  0  0  0
 38 43  1  0  0  0  0
 43 44  2  0  0  0  0
 44 45  1  0  0  0  0
 45 46  2  0  0  0  0
 46 47  1  0  0  0  0
 47 48  1  0  0  0  0
 48 49  1  0  0  0  0
 48 50  1  0  0  0  0
 48 51  1  0  0  0  0
 47 52  2  0  0  0  0
 52 53  1  0  0  0  0
 53 54  2  0  0  0  0
 33 55  1  0  0  0  0
 55 56  2  0  0  0  0
 56 57  1  0  0  0  0
 57 58  2  0  0  0  0
 10  5  1  0  0  0  0
 20 11  1  0  0  0  0
 27 22  1  0  0  0  0
 56 30  1  0  0  0  0
 21  8  1  0  0  0  0
 57 25  1  0  0  0  0
 54 34  1  0  0  0  0
 44 35  1  0  0  0  0
 54 45  1  0  0  0  0
  1 59  1  0  0  0  0
  1 60  1  0  0  0  0
  1 61  1  0  0  0  0
  3 62  1  0  0  0  0
  3 63  1  0  0  0  0
  3 64  1  0  0  0  0
  4 65  1  0  0  0  0
  4 66  1  0  0  0  0
  4 67  1  0  0  0  0
  6 68  1  0  0  0  0
  7 69  1  0  0  0  0
 10 70  1  0  0  0  0
 12 71  1  0  0  0  0
 15 72  1  0  0  0  0
 15 73  1  0  0  0  0
 15 74  1  0  0  0  0
 16 75  1  0  0  0  0
 16 76  1  0  0  0  0
 16 77  1  0  0  0  0
 17 78  1  0  0  0  0
 17 79  1  0  0  0  0
 17 80  1  0  0  0  0
 18 81  1  0  0  0  0
 19 82  1  0  0  0  0
 23 83  1  0  0  0  0
 24 84  1  0  0  0  0
 27 85  1  0  0  0  0
 31 86  1  0  0  0  0
 32 87  1  0  0  0  0
 36 88  1  0  0  0  0
 37 89  1  0  0  0  0
 40 90  1  0  0  0  0
 40 91  1  0  0  0  0
 40 92  1  0  0  0  0
 41 93  1  0  0  0  0
 41 94  1  0  0  0  0
 41 95  1  0  0  0  0
 42 96  1  0  0  0  0
 42 97  1  0  0  0  0
 42 98  1  0  0  0  0
 43 99  1  0  0  0  0
 46100  1  0  0  0  0
 49101  1  0  0  0  0
 49102  1  0  0  0  0
 49103  1  0  0  0  0
 50104  1  0  0  0  0
 50105  1  0  0  0  0
 50106  1  0  0  0  0
 51107  1  0  0  0  0
 51108  1  0  0  0  0
 51109  1  0  0  0  0
 52110  1  0  0  0  0
 53111  1  0  0  0  0
 55112  1  0  0  0  0
M  END
