
  xtb     03022216083D
 energy: -124.008155509347 gnorm: 0.000185379481 xtb: 6.4.1 (afa7bdf)
 85 92  0     0  0            999 V2000
   -7.6446    2.1967    2.1479 C   0  0  0  0  0  0  0  0  0  0  0  0
   -7.2739    1.8873    0.6859 C   0  0  0  0  0  0  0  0  0  0  0  0
   -8.3559    2.4304   -0.2652 C   0  0  0  0  0  0  0  0  0  0  0  0
   -5.9585    2.5697    0.3620 C   0  0  0  0  0  0  0  0  0  0  0  0
   -5.8637    3.9510    0.4624 C   0  0  0  0  0  0  0  0  0  0  0  0
   -4.6992    4.6318    0.1598 C   0  0  0  0  0  0  0  0  0  0  0  0
   -3.5933    3.9210   -0.2691 C   0  0  0  0  0  0  0  0  0  0  0  0
   -3.6599    2.5480   -0.3782 C   0  0  0  0  0  0  0  0  0  0  0  0
   -4.8299    1.8557   -0.0533 C   0  0  0  0  0  0  0  0  0  0  0  0
   -4.8660    0.4739   -0.1696 N   0  0  0  0  0  0  0  0  0  0  0  0
   -3.7086   -0.2126   -0.6165 C   0  0  0  0  0  0  0  0  0  0  0  0
   -3.6396   -0.6834   -1.9236 C   0  0  0  0  0  0  0  0  0  0  0  0
   -2.5185   -1.3600   -2.3589 C   0  0  0  0  0  0  0  0  0  0  0  0
   -1.4391   -1.5759   -1.5014 C   0  0  0  0  0  0  0  0  0  0  0  0
   -0.2483   -2.3070   -1.9450 C   0  0  0  0  0  0  0  0  0  0  0  0
   -0.3507   -3.3326   -2.8172 C   0  0  0  0  0  0  0  0  0  0  0  0
    0.7430   -4.0287   -3.3503 C   0  0  0  0  0  0  0  0  0  0  0  0
    1.6051   -4.6139   -3.8342 N   0  0  0  0  0  0  0  0  0  0  0  0
    1.0509   -1.8836   -1.4060 C   0  0  0  0  0  0  0  0  0  0  0  0
    1.9940   -2.8191   -0.9839 C   0  0  0  0  0  0  0  0  0  0  0  0
    3.2197   -2.4088   -0.5000 C   0  0  0  0  0  0  0  0  0  0  0  0
    3.5296   -1.0544   -0.4371 C   0  0  0  0  0  0  0  0  0  0  0  0
    4.7965   -0.6367    0.0425 N   0  0  0  0  0  0  0  0  0  0  0  0
    4.8930   -0.0868    1.3117 C   0  0  0  0  0  0  0  0  0  0  0  0
    3.7479    0.0332    2.1049 C   0  0  0  0  0  0  0  0  0  0  0  0
    3.8121    0.5812    3.3685 C   0  0  0  0  0  0  0  0  0  0  0  0
    5.0258    1.0133    3.8708 C   0  0  0  0  0  0  0  0  0  0  0  0
    6.1636    0.8741    3.0980 C   0  0  0  0  0  0  0  0  0  0  0  0
    6.1278    0.3265    1.8230 C   0  0  0  0  0  0  0  0  0  0  0  0
    7.4183    0.1765    1.0405 C   0  0  0  0  0  0  0  0  0  0  0  0
    8.3711   -0.7338    1.8368 C   0  0  0  0  0  0  0  0  0  0  0  0
    8.0465    1.5691    0.8493 C   0  0  0  0  0  0  0  0  0  0  0  0
    7.1839   -0.4406   -0.3251 C   0  0  0  0  0  0  0  0  0  0  0  0
    8.2618   -0.6391   -1.1775 C   0  0  0  0  0  0  0  0  0  0  0  0
    8.1092   -1.1775   -2.4414 C   0  0  0  0  0  0  0  0  0  0  0  0
    6.8434   -1.5188   -2.8819 C   0  0  0  0  0  0  0  0  0  0  0  0
    5.7553   -1.3324   -2.0558 C   0  0  0  0  0  0  0  0  0  0  0  0
    5.9104   -0.8098   -0.7686 C   0  0  0  0  0  0  0  0  0  0  0  0
    2.5899   -0.1143   -0.8481 C   0  0  0  0  0  0  0  0  0  0  0  0
    1.3600   -0.5259   -1.3193 C   0  0  0  0  0  0  0  0  0  0  0  0
   -1.5123   -1.0875   -0.1956 C   0  0  0  0  0  0  0  0  0  0  0  0
   -2.6361   -0.4186    0.2449 C   0  0  0  0  0  0  0  0  0  0  0  0
   -6.0111   -0.2562    0.1134 C   0  0  0  0  0  0  0  0  0  0  0  0
   -5.9830   -1.6507    0.0203 C   0  0  0  0  0  0  0  0  0  0  0  0
   -7.1063   -2.4033    0.2906 C   0  0  0  0  0  0  0  0  0  0  0  0
   -8.2801   -1.7769    0.6678 C   0  0  0  0  0  0  0  0  0  0  0  0
   -8.3038   -0.3994    0.7824 C   0  0  0  0  0  0  0  0  0  0  0  0
   -7.1878    0.3825    0.5172 C   0  0  0  0  0  0  0  0  0  0  0  0
   -7.7264    3.2680    2.3092 H   0  0  0  0  0  0  0  0  0  0  0  0
   -6.8776    1.8066    2.8144 H   0  0  0  0  0  0  0  0  0  0  0  0
   -8.5938    1.7397    2.4133 H   0  0  0  0  0  0  0  0  0  0  0  0
   -8.0849    2.2129   -1.2968 H   0  0  0  0  0  0  0  0  0  0  0  0
   -8.4627    3.5063   -0.1587 H   0  0  0  0  0  0  0  0  0  0  0  0
   -9.3188    1.9710   -0.0598 H   0  0  0  0  0  0  0  0  0  0  0  0
   -6.7233    4.5194    0.7840 H   0  0  0  0  0  0  0  0  0  0  0  0
   -4.6601    5.7065    0.2508 H   0  0  0  0  0  0  0  0  0  0  0  0
   -2.6771    4.4330   -0.5233 H   0  0  0  0  0  0  0  0  0  0  0  0
   -2.7956    2.0025   -0.7250 H   0  0  0  0  0  0  0  0  0  0  0  0
   -4.4712   -0.5134   -2.5912 H   0  0  0  0  0  0  0  0  0  0  0  0
   -2.4669   -1.6980   -3.3833 H   0  0  0  0  0  0  0  0  0  0  0  0
   -1.3156   -3.6644   -3.1782 H   0  0  0  0  0  0  0  0  0  0  0  0
    1.7569   -3.8716   -1.0150 H   0  0  0  0  0  0  0  0  0  0  0  0
    3.9486   -3.1346   -0.1724 H   0  0  0  0  0  0  0  0  0  0  0  0
    2.7984   -0.3137    1.7267 H   0  0  0  0  0  0  0  0  0  0  0  0
    2.9125    0.6660    3.9601 H   0  0  0  0  0  0  0  0  0  0  0  0
    5.0897    1.4460    4.8575 H   0  0  0  0  0  0  0  0  0  0  0  0
    7.1070    1.2018    3.5078 H   0  0  0  0  0  0  0  0  0  0  0  0
    9.3138   -0.8617    1.3122 H   0  0  0  0  0  0  0  0  0  0  0  0
    7.9182   -1.7142    1.9726 H   0  0  0  0  0  0  0  0  0  0  0  0
    8.5811   -0.3146    2.8170 H   0  0  0  0  0  0  0  0  0  0  0  0
    8.9861    1.5006    0.3082 H   0  0  0  0  0  0  0  0  0  0  0  0
    7.3696    2.2054    0.2821 H   0  0  0  0  0  0  0  0  0  0  0  0
    8.2402    2.0428    1.8077 H   0  0  0  0  0  0  0  0  0  0  0  0
    9.2537   -0.3657   -0.8505 H   0  0  0  0  0  0  0  0  0  0  0  0
    8.9695   -1.3211   -3.0770 H   0  0  0  0  0  0  0  0  0  0  0  0
    6.6975   -1.9288   -3.8698 H   0  0  0  0  0  0  0  0  0  0  0  0
    4.7713   -1.5926   -2.4143 H   0  0  0  0  0  0  0  0  0  0  0  0
    2.8331    0.9364   -0.7946 H   0  0  0  0  0  0  0  0  0  0  0  0
    0.6378    0.2069   -1.6493 H   0  0  0  0  0  0  0  0  0  0  0  0
   -0.6881   -1.2557    0.4820 H   0  0  0  0  0  0  0  0  0  0  0  0
   -2.6926   -0.0496    1.2581 H   0  0  0  0  0  0  0  0  0  0  0  0
   -5.0676   -2.1487   -0.2610 H   0  0  0  0  0  0  0  0  0  0  0  0
   -7.0604   -3.4790    0.2091 H   0  0  0  0  0  0  0  0  0  0  0  0
   -9.1672   -2.3540    0.8794 H   0  0  0  0  0  0  0  0  0  0  0  0
   -9.2231    0.0756    1.0900 H   0  0  0  0  0  0  0  0  0  0  0  0
  1  2  1  0  0  0  0
  2  3  1  0  0  0  0
  2  4  1  0  0  0  0
  4  5  2  0  0  0  0
  5  6  1  0  0  0  0
  6  7  2  0  0  0  0
  7  8  1  0  0  0  0
  8  9  2  0  0  0  0
  9 10  1  0  0  0  0
 10 11  1  0  0  0  0
 11 12  2  0  0  0  0
 12 13  1  0  0  0  0
 13 14  2  0  0  0  0
 14 15  1  0  0  0  0
 15 16  2  0  0  0  0
 16 17  1  0  0  0  0
 17 18  3  0  0  0  0
 15 19  1  0  0  0  0
 19 20  2  0  0  0  0
 20 21  1  0  0  0  0
 21 22  2  0  0  0  0
 22 23  1  0  0  0  0
 23 24  1  0  0  0  0
 24 25  2  0  0  0  0
 25 26  1  0  0  0  0
 26 27  2  0  0  0  0
 27 28  1  0  0  0  0
 28 29  2  0  0  0  0
 29 30  1  0  0  0  0
 30 31  1  0  0  0  0
 30 32  1  0  0  0  0
 30 33  1  0  0  0  0
 33 34  2  0  0  0  0
 34 35  1  0  0  0  0
 35 36  2  0  0  0  0
 36 37  1  0  0  0  0
 37 38  2  0  0  0  0
 22 39  1  0  0  0  0
 39 40  2  0  0  0  0
 14 41  1  0  0  0  0
 41 42  2  0  0  0  0
 10 43  1  0  0  0  0
 43 44  2  0  0  0  0
 44 45  1  0  0  0  0
 45 46  2  0  0  0  0
 46 47  1  0  0  0  0
 47 48  2  0  0  0  0
 48  2  1  0  0  0  0
  9  4  1  0  0  0  0
 42 11  1  0  0  0  0
 48 43  1  0  0  0  0
 40 19  1  0  0  0  0
 38 23  1  0  0  0  0
 29 24  1  0  0  0  0
 38 33  1  0  0  0  0
  1 49  1  0  0  0  0
  1 50  1  0  0  0  0
  1 51  1  0  0  0  0
  3 52  1  0  0  0  0
  3 53  1  0  0  0  0
  3 54  1  0  0  0  0
  5 55  1  0  0  0  0
  6 56  1  0  0  0  0
  7 57  1  0  0  0  0
  8 58  1  0  0  0  0
 12 59  1  0  0  0  0
 13 60  1  0  0  0  0
 16 61  1  0  0  0  0
 20 62  1  0  0  0  0
 21 63  1  0  0  0  0
 25 64  1  0  0  0  0
 26 65  1  0  0  0  0
 27 66  1  0  0  0  0
 28 67  1  0  0  0  0
 31 68  1  0  0  0  0
 31 69  1  0  0  0  0
 31 70  1  0  0  0  0
 32 71  1  0  0  0  0
 32 72  1  0  0  0  0
 32 73  1  0  0  0  0
 34 74  1  0  0  0  0
 35 75  1  0  0  0  0
 36 76  1  0  0  0  0
 37 77  1  0  0  0  0
 39 78  1  0  0  0  0
 40 79  1  0  0  0  0
 41 80  1  0  0  0  0
 42 81  1  0  0  0  0
 44 82  1  0  0  0  0
 45 83  1  0  0  0  0
 46 84  1  0  0  0  0
 47 85  1  0  0  0  0
M  END
