
  xtb     03022215003D
 energy: -72.395161309630 gnorm: 0.000160324664 xtb: 6.4.1 (afa7bdf)
 52 54  0     0  0            999 V2000
    8.6795   -0.7491    0.4164 C   0  0  0  0  0  0  0  0  0  0  0  0
    7.5624    0.0620    0.8329 N   0  0  0  0  0  0  0  0  0  0  0  0
    7.8343    1.2758    1.5630 C   0  0  0  0  0  0  0  0  0  0  0  0
    6.3180   -0.1534    0.2988 C   0  0  0  0  0  0  0  0  0  0  0  0
    5.2348    0.6867    0.6011 C   0  0  0  0  0  0  0  0  0  0  0  0
    3.9751    0.4456    0.1018 C   0  0  0  0  0  0  0  0  0  0  0  0
    3.7149   -0.6402   -0.7400 C   0  0  0  0  0  0  0  0  0  0  0  0
    2.4233   -0.9553   -1.2961 C   0  0  0  0  0  0  0  0  0  0  0  0
    1.1925   -0.5540   -0.9278 C   0  0  0  0  0  0  0  0  0  0  0  0
    0.7539    0.3392    0.1938 C   0  0  0  0  0  0  0  0  0  0  0  0
   -0.7575    0.0932    0.3479 C   0  0  0  0  0  0  0  0  0  0  0  0
   -1.1869   -0.5714   -0.9257 C   0  0  0  0  0  0  0  0  0  0  0  0
   -2.4142   -0.7486   -1.4489 C   0  0  0  0  0  0  0  0  0  0  0  0
   -3.7096   -0.3707   -0.9427 C   0  0  0  0  0  0  0  0  0  0  0  0
   -4.7944   -0.3402   -1.8283 C   0  0  0  0  0  0  0  0  0  0  0  0
   -6.0558    0.0277   -1.4260 C   0  0  0  0  0  0  0  0  0  0  0  0
   -6.3188    0.3774   -0.0914 C   0  0  0  0  0  0  0  0  0  0  0  0
   -7.5660    0.7770    0.3150 N   0  0  0  0  0  0  0  0  0  0  0  0
   -8.6778    0.7234   -0.6017 C   0  0  0  0  0  0  0  0  0  0  0  0
   -7.8470    0.9477    1.7194 C   0  0  0  0  0  0  0  0  0  0  0  0
   -5.2410    0.3131    0.8056 C   0  0  0  0  0  0  0  0  0  0  0  0
   -3.9783   -0.0435    0.3900 C   0  0  0  0  0  0  0  0  0  0  0  0
    0.0056   -1.0355   -1.6530 C   0  0  0  0  0  0  0  0  0  0  0  0
    0.0095   -1.7012   -2.6761 O   0  0  0  0  0  0  0  0  0  0  0  0
    4.8050   -1.4563   -1.0682 C   0  0  0  0  0  0  0  0  0  0  0  0
    6.0636   -1.2320   -0.5642 C   0  0  0  0  0  0  0  0  0  0  0  0
    8.8966   -0.6342   -0.6522 H   0  0  0  0  0  0  0  0  0  0  0  0
    8.4819   -1.8039    0.6209 H   0  0  0  0  0  0  0  0  0  0  0  0
    9.5652   -0.4612    0.9782 H   0  0  0  0  0  0  0  0  0  0  0  0
    8.8748    1.2841    1.8788 H   0  0  0  0  0  0  0  0  0  0  0  0
    7.2109    1.3337    2.4591 H   0  0  0  0  0  0  0  0  0  0  0  0
    7.6534    2.1683    0.9531 H   0  0  0  0  0  0  0  0  0  0  0  0
    5.3742    1.5472    1.2351 H   0  0  0  0  0  0  0  0  0  0  0  0
    3.1867    1.1377    0.3462 H   0  0  0  0  0  0  0  0  0  0  0  0
    2.4409   -1.6559   -2.1254 H   0  0  0  0  0  0  0  0  0  0  0  0
    0.9337    1.3849   -0.0724 H   0  0  0  0  0  0  0  0  0  0  0  0
    1.2964    0.1256    1.1163 H   0  0  0  0  0  0  0  0  0  0  0  0
   -0.9395   -0.5748    1.1949 H   0  0  0  0  0  0  0  0  0  0  0  0
   -1.3043    1.0212    0.5239 H   0  0  0  0  0  0  0  0  0  0  0  0
   -2.4252   -1.2226   -2.4256 H   0  0  0  0  0  0  0  0  0  0  0  0
   -4.6312   -0.6056   -2.8633 H   0  0  0  0  0  0  0  0  0  0  0  0
   -6.8462    0.0338   -2.1587 H   0  0  0  0  0  0  0  0  0  0  0  0
   -8.8923   -0.3005   -0.9303 H   0  0  0  0  0  0  0  0  0  0  0  0
   -9.5666    1.1201   -0.1162 H   0  0  0  0  0  0  0  0  0  0  0  0
   -8.4756    1.3373   -1.4823 H   0  0  0  0  0  0  0  0  0  0  0  0
   -8.8885    1.2320    1.8492 H   0  0  0  0  0  0  0  0  0  0  0  0
   -7.2268    1.7425    2.1419 H   0  0  0  0  0  0  0  0  0  0  0  0
   -7.6692    0.0267    2.2863 H   0  0  0  0  0  0  0  0  0  0  0  0
   -5.3869    0.5421    1.8487 H   0  0  0  0  0  0  0  0  0  0  0  0
   -3.1943   -0.1010    1.1264 H   0  0  0  0  0  0  0  0  0  0  0  0
    4.6484   -2.2948   -1.7321 H   0  0  0  0  0  0  0  0  0  0  0  0
    6.8583   -1.8999   -0.8535 H   0  0  0  0  0  0  0  0  0  0  0  0
  1  2  1  0  0  0  0
  2  3  1  0  0  0  0
  2  4  1  0  0  0  0
  4  5  2  0  0  0  0
  5  6  1  0  0  0  0
  6  7  2  0  0  0  0
  7  8  1  0  0  0  0
  8  9  2  0  0  0  0
  9 10  1  0  0  0  0
 10 11  1  0  0  0  0
 11 12  1  0  0  0  0
 12 13  2  0  0  0  0
 13 14  1  0  0  0  0
 14 15  2  0  0  0  0
 15 16  1  0  0  0  0
 16 17  2  0  0  0  0
 17 18  1  0  0  0  0
 18 19  1  0  0  0  0
 18 20  1  0  0  0  0
 17 21  1  0  0  0  0
 21 22  2  0  0  0  0
 12 23  1  0  0  0  0
 23 24  2  0  0  0  0
  7 25  1  0  0  0  0
 25 26  2  0  0  0  0
 26  4  1  0  0  0  0
 23  9  1  0  0  0  0
 22 14  1  0  0  0  0
  1 27  1  0  0  0  0
  1 28  1  0  0  0  0
  1 29  1  0  0  0  0
  3 30  1  0  0  0  0
  3 31  1  0  0  0  0
  3 32  1  0  0  0  0
  5 33  1  0  0  0  0
  6 34  1  0  0  0  0
  8 35  1  0  0  0  0
 10 36  1  0  0  0  0
 10 37  1  0  0  0  0
 11 38  1  0  0  0  0
 11 39  1  0  0  0  0
 13 40  1  0  0  0  0
 15 41  1  0  0  0  0
 16 42  1  0  0  0  0
 19 43  1  0  0  0  0
 19 44  1  0  0  0  0
 19 45  1  0  0  0  0
 20 46  1  0  0  0  0
 20 47  1  0  0  0  0
 20 48  1  0  0  0  0
 21 49  1  0  0  0  0
 22 50  1  0  0  0  0
 25 51  1  0  0  0  0
 26 52  1  0  0  0  0
M  END
