
  xtb     03022213013D
 energy: -88.039657123457 gnorm: 0.000117847279 xtb: 6.4.1 (afa7bdf)
 67 71  0     0  0            999 V2000
    1.7386   -2.1220   -2.7898 C   0  0  0  0  0  0  0  0  0  0  0  0
    1.1041   -0.7365   -2.8339 C   0  0  0  0  0  0  0  0  0  0  0  0
   -0.1580   -0.5662   -1.9850 C   0  0  0  0  0  0  0  0  0  0  0  0
   -0.0208   -0.4602   -0.4445 C   0  0  0  0  0  0  0  0  0  0  0  0
    0.2106   -1.8190    0.2311 C   0  0  0  0  0  0  0  0  0  0  0  0
    0.1577   -1.7290    1.7559 C   0  0  0  0  0  0  0  0  0  0  0  0
    0.4171   -3.0844    2.4018 C   0  0  0  0  0  0  0  0  0  0  0  0
    1.0104    0.5649   -0.0298 C   0  0  0  0  0  0  0  0  0  0  0  0
    2.3830    0.4991   -0.1099 C   0  0  0  0  0  0  0  0  0  0  0  0
    3.1539    1.5826    0.3196 C   0  0  0  0  0  0  0  0  0  0  0  0
    4.6198    1.5264    0.2216 C   0  0  0  0  0  0  0  0  0  0  0  0
    5.3454    2.6287   -0.2225 C   0  0  0  0  0  0  0  0  0  0  0  0
    6.7228    2.5625   -0.3181 C   0  0  0  0  0  0  0  0  0  0  0  0
    7.3927    1.4040    0.0325 C   0  0  0  0  0  0  0  0  0  0  0  0
    6.6895    0.2929    0.4828 C   0  0  0  0  0  0  0  0  0  0  0  0
    7.4137   -0.9678    0.8490 C   0  0  0  0  0  0  0  0  0  0  0  0
    5.3078    0.3666    0.5682 C   0  0  0  0  0  0  0  0  0  0  0  0
    2.5233    2.7119    0.8395 C   0  0  0  0  0  0  0  0  0  0  0  0
    1.1470    2.7710    0.9613 C   0  0  0  0  0  0  0  0  0  0  0  0
    0.3904    1.6941    0.5295 C   0  0  0  0  0  0  0  0  0  0  0  0
   -1.0409    1.4612    0.5768 C   0  0  0  0  0  0  0  0  0  0  0  0
   -2.0791    2.2466    1.0506 C   0  0  0  0  0  0  0  0  0  0  0  0
   -3.3695    1.7525    0.9902 C   0  0  0  0  0  0  0  0  0  0  0  0
   -3.6383    0.4866    0.4701 C   0  0  0  0  0  0  0  0  0  0  0  0
   -5.0166   -0.0222    0.4224 C   0  0  0  0  0  0  0  0  0  0  0  0
   -5.2980   -1.3423    0.7675 C   0  0  0  0  0  0  0  0  0  0  0  0
   -6.5966   -1.8116    0.7222 C   0  0  0  0  0  0  0  0  0  0  0  0
   -7.6283   -0.9775    0.3270 C   0  0  0  0  0  0  0  0  0  0  0  0
   -7.3709    0.3412   -0.0245 C   0  0  0  0  0  0  0  0  0  0  0  0
   -8.4752    1.2478   -0.4786 C   0  0  0  0  0  0  0  0  0  0  0  0
   -6.0644    0.8050    0.0304 C   0  0  0  0  0  0  0  0  0  0  0  0
   -2.5852   -0.2981   -0.0065 C   0  0  0  0  0  0  0  0  0  0  0  0
   -1.2998    0.1883    0.0490 C   0  0  0  0  0  0  0  0  0  0  0  0
    2.2376   -2.3092   -1.8436 H   0  0  0  0  0  0  0  0  0  0  0  0
    2.4819   -2.2133   -3.5795 H   0  0  0  0  0  0  0  0  0  0  0  0
    0.9857   -2.8930   -2.9391 H   0  0  0  0  0  0  0  0  0  0  0  0
    1.8400    0.0192   -2.5561 H   0  0  0  0  0  0  0  0  0  0  0  0
    0.8126   -0.5350   -3.8686 H   0  0  0  0  0  0  0  0  0  0  0  0
   -0.8461   -1.3863   -2.2037 H   0  0  0  0  0  0  0  0  0  0  0  0
   -0.6402    0.3584   -2.3168 H   0  0  0  0  0  0  0  0  0  0  0  0
   -0.5500   -2.5226   -0.1149 H   0  0  0  0  0  0  0  0  0  0  0  0
    1.1842   -2.2115   -0.0595 H   0  0  0  0  0  0  0  0  0  0  0  0
    0.9052   -1.0109    2.1012 H   0  0  0  0  0  0  0  0  0  0  0  0
   -0.8217   -1.3594    2.0671 H   0  0  0  0  0  0  0  0  0  0  0  0
   -0.3287   -3.8095    2.0823 H   0  0  0  0  0  0  0  0  0  0  0  0
    1.3996   -3.4607    2.1236 H   0  0  0  0  0  0  0  0  0  0  0  0
    0.3753   -3.0056    3.4856 H   0  0  0  0  0  0  0  0  0  0  0  0
    2.8791   -0.3732   -0.5081 H   0  0  0  0  0  0  0  0  0  0  0  0
    4.8256    3.5303   -0.5116 H   0  0  0  0  0  0  0  0  0  0  0  0
    7.2790    3.4198   -0.6691 H   0  0  0  0  0  0  0  0  0  0  0  0
    8.4700    1.3598   -0.0413 H   0  0  0  0  0  0  0  0  0  0  0  0
    6.8166   -1.5790    1.5217 H   0  0  0  0  0  0  0  0  0  0  0  0
    7.6208   -1.5527   -0.0480 H   0  0  0  0  0  0  0  0  0  0  0  0
    8.3646   -0.7423    1.3273 H   0  0  0  0  0  0  0  0  0  0  0  0
    4.7536   -0.4865    0.9345 H   0  0  0  0  0  0  0  0  0  0  0  0
    3.1267    3.5393    1.1841 H   0  0  0  0  0  0  0  0  0  0  0  0
    0.6730    3.6400    1.3935 H   0  0  0  0  0  0  0  0  0  0  0  0
   -1.8873    3.2259    1.4639 H   0  0  0  0  0  0  0  0  0  0  0  0
   -4.1866    2.3463    1.3737 H   0  0  0  0  0  0  0  0  0  0  0  0
   -4.4990   -1.9919    1.0938 H   0  0  0  0  0  0  0  0  0  0  0  0
   -6.8091   -2.8343    0.9992 H   0  0  0  0  0  0  0  0  0  0  0  0
   -8.6411   -1.3529    0.2923 H   0  0  0  0  0  0  0  0  0  0  0  0
   -8.3427    2.2502   -0.0765 H   0  0  0  0  0  0  0  0  0  0  0  0
   -9.4447    0.8676   -0.1659 H   0  0  0  0  0  0  0  0  0  0  0  0
   -8.4732    1.3216   -1.5666 H   0  0  0  0  0  0  0  0  0  0  0  0
   -5.8534    1.8257   -0.2569 H   0  0  0  0  0  0  0  0  0  0  0  0
   -2.7932   -1.2709   -0.4279 H   0  0  0  0  0  0  0  0  0  0  0  0
  1  2  1  0  0  0  0
  2  3  1  0  0  0  0
  3  4  1  0  0  0  0
  4  5  1  0  0  0  0
  5  6  1  0  0  0  0
  6  7  1  0  0  0  0
  4  8  1  0  0  0  0
  8  9  2  0  0  0  0
  9 10  1  0  0  0  0
 10 11  1  0  0  0  0
 11 12  2  0  0  0  0
 12 13  1  0  0  0  0
 13 14  2  0  0  0  0
 14 15  1  0  0  0  0
 15 16  1  0  0  0  0
 15 17  2  0  0  0  0
 10 18  2  0  0  0  0
 18 19  1  0  0  0  0
 19 20  2  0  0  0  0
 20 21  1  0  0  0  0
 21 22  2  0  0  0  0
 22 23  1  0  0  0  0
 23 24  2  0  0  0  0
 24 25  1  0  0  0  0
 25 26  2  0  0  0  0
 26 27  1  0  0  0  0
 27 28  2  0  0  0  0
 28 29  1  0  0  0  0
 29 30  1  0  0  0  0
 29 31  2  0  0  0  0
 24 32  1  0  0  0  0
 32 33  2  0  0  0  0
 33  4  1  0  0  0  0
 20  8  1  0  0  0  0
 33 21  1  0  0  0  0
 17 11  1  0  0  0  0
 31 25  1  0  0  0  0
  1 34  1  0  0  0  0
  1 35  1  0  0  0  0
  1 36  1  0  0  0  0
  2 37  1  0  0  0  0
  2 38  1  0  0  0  0
  3 39  1  0  0  0  0
  3 40  1  0  0  0  0
  5 41  1  0  0  0  0
  5 42  1  0  0  0  0
  6 43  1  0  0  0  0
  6 44  1  0  0  0  0
  7 45  1  0  0  0  0
  7 46  1  0  0  0  0
  7 47  1  0  0  0  0
  9 48  1  0  0  0  0
 12 49  1  0  0  0  0
 13 50  1  0  0  0  0
 14 51  1  0  0  0  0
 16 52  1  0  0  0  0
 16 53  1  0  0  0  0
 16 54  1  0  0  0  0
 17 55  1  0  0  0  0
 18 56  1  0  0  0  0
 19 57  1  0  0  0  0
 22 58  1  0  0  0  0
 23 59  1  0  0  0  0
 26 60  1  0  0  0  0
 27 61  1  0  0  0  0
 28 62  1  0  0  0  0
 30 63  1  0  0  0  0
 30 64  1  0  0  0  0
 30 65  1  0  0  0  0
 31 66  1  0  0  0  0
 32 67  1  0  0  0  0
M  END
