
  xtb     03022215493D
 energy: -61.889002743786 gnorm: 0.000257636008 xtb: 6.4.1 (afa7bdf)
 42 43  0     0  0            999 V2000
    4.8651    2.1360    0.4136 C   0  0  0  0  0  0  0  0  0  0  0  0
    4.8309    1.1399   -0.5873 O   0  0  0  0  0  0  0  0  0  0  0  0
    5.3383   -0.1058   -0.1987 C   0  0  0  0  0  0  0  0  0  0  0  0
    4.4767   -0.8494    0.8422 C   0  0  0  0  0  0  0  0  0  0  0  0
    3.0880   -0.8929    0.4812 N   0  0  0  0  0  0  0  0  0  0  0  0
    2.1294   -0.0814    1.0705 C   0  0  0  0  0  0  0  0  0  0  0  0
    2.3403    0.7055    1.9722 O   0  0  0  0  0  0  0  0  0  0  0  0
    0.8854   -0.4406    0.3640 C   0  0  0  0  0  0  0  0  0  0  0  0
   -0.3112    0.1275    0.6388 C   0  0  0  0  0  0  0  0  0  0  0  0
   -1.5867   -0.1348    0.0284 C   0  0  0  0  0  0  0  0  0  0  0  0
   -1.7417   -1.0843   -0.9873 C   0  0  0  0  0  0  0  0  0  0  0  0
   -2.9952   -1.2875   -1.5253 C   0  0  0  0  0  0  0  0  0  0  0  0
   -4.0941   -0.5728   -1.0835 C   0  0  0  0  0  0  0  0  0  0  0  0
   -3.9694    0.3919   -0.0713 C   0  0  0  0  0  0  0  0  0  0  0  0
   -5.0489    1.1389    0.3444 N   0  0  0  0  0  0  0  0  0  0  0  0
   -4.9324    1.9618    1.5240 C   0  0  0  0  0  0  0  0  0  0  0  0
   -6.3746    0.7885   -0.1035 C   0  0  0  0  0  0  0  0  0  0  0  0
   -2.6976    0.5860    0.4743 C   0  0  0  0  0  0  0  0  0  0  0  0
    1.1896   -1.4181   -0.5725 N   0  0  0  0  0  0  0  0  0  0  0  0
    2.4541   -1.6465   -0.4868 C   0  0  0  0  0  0  0  0  0  0  0  0
    3.1720   -2.6318   -1.3285 C   0  0  0  0  0  0  0  0  0  0  0  0
    4.6143    3.0695   -0.0862 H   0  0  0  0  0  0  0  0  0  0  0  0
    4.1347    1.9476    1.2059 H   0  0  0  0  0  0  0  0  0  0  0  0
    5.8674    2.2141    0.8517 H   0  0  0  0  0  0  0  0  0  0  0  0
    6.3550   -0.0037    0.2142 H   0  0  0  0  0  0  0  0  0  0  0  0
    5.3923   -0.6867   -1.1230 H   0  0  0  0  0  0  0  0  0  0  0  0
    4.5200   -0.3267    1.8030 H   0  0  0  0  0  0  0  0  0  0  0  0
    4.8708   -1.8624    0.9693 H   0  0  0  0  0  0  0  0  0  0  0  0
   -0.2901    0.8771    1.4218 H   0  0  0  0  0  0  0  0  0  0  0  0
   -0.8822   -1.6367   -1.3258 H   0  0  0  0  0  0  0  0  0  0  0  0
   -3.1306   -2.0216   -2.3069 H   0  0  0  0  0  0  0  0  0  0  0  0
   -5.0520   -0.7736   -1.5341 H   0  0  0  0  0  0  0  0  0  0  0  0
   -4.6520    1.3789    2.4098 H   0  0  0  0  0  0  0  0  0  0  0  0
   -4.1857    2.7443    1.3698 H   0  0  0  0  0  0  0  0  0  0  0  0
   -5.8855    2.4469    1.7216 H   0  0  0  0  0  0  0  0  0  0  0  0
   -6.4410    0.8674   -1.1910 H   0  0  0  0  0  0  0  0  0  0  0  0
   -7.0947    1.4829    0.3232 H   0  0  0  0  0  0  0  0  0  0  0  0
   -6.6593   -0.2290    0.1926 H   0  0  0  0  0  0  0  0  0  0  0  0
   -2.5439    1.3078    1.2597 H   0  0  0  0  0  0  0  0  0  0  0  0
    2.4417   -3.2503   -1.8418 H   0  0  0  0  0  0  0  0  0  0  0  0
    3.8236   -3.2583   -0.7217 H   0  0  0  0  0  0  0  0  0  0  0  0
    3.7799   -2.1179   -2.0721 H   0  0  0  0  0  0  0  0  0  0  0  0
  1  2  1  0  0  0  0
  2  3  1  0  0  0  0
  3  4  1  0  0  0  0
  4  5  1  0  0  0  0
  5  6  1  0  0  0  0
  6  7  2  0  0  0  0
  6  8  1  0  0  0  0
  8  9  2  0  0  0  0
  9 10  1  0  0  0  0
 10 11  2  0  0  0  0
 11 12  1  0  0  0  0
 12 13  2  0  0  0  0
 13 14  1  0  0  0  0
 14 15  1  0  0  0  0
 15 16  1  0  0  0  0
 15 17  1  0  0  0  0
 14 18  2  0  0  0  0
  8 19  1  0  0  0  0
 19 20  2  0  0  0  0
 20 21  1  0  0  0  0
 20  5  1  0  0  0  0
 18 10  1  0  0  0  0
  1 22  1  0  0  0  0
  1 23  1  0  0  0  0
  1 24  1  0  0  0  0
  3 25  1  0  0  0  0
  3 26  1  0  0  0  0
  4 27  1  0  0  0  0
  4 28  1  0  0  0  0
  9 29  1  0  0  0  0
 11 30  1  0  0  0  0
 12 31  1  0  0  0  0
 13 32  1  0  0  0  0
 16 33  1  0  0  0  0
 16 34  1  0  0  0  0
 16 35  1  0  0  0  0
 17 36  1  0  0  0  0
 17 37  1  0  0  0  0
 17 38  1  0  0  0  0
 18 39  1  0  0  0  0
 21 40  1  0  0  0  0
 21 41  1  0  0  0  0
 21 42  1  0  0  0  0
M  END
