
  xtb     03022213203D
 energy: -83.963260851451 gnorm: 0.000214587609 xtb: 6.4.1 (afa7bdf)
 49 52  0     0  0            999 V2000
    9.9068    0.5836   -0.3429 C   0  0  0  0  0  0  0  0  0  0  0  0
    9.1834    0.6241    0.9961 C   0  0  0  0  0  0  0  0  0  0  0  0
    7.8203    0.2258    0.8655 O   0  0  0  0  0  0  0  0  0  0  0  0
    6.9497    1.1660    0.4563 C   0  0  0  0  0  0  0  0  0  0  0  0
    7.2552    2.3091    0.2222 O   0  0  0  0  0  0  0  0  0  0  0  0
    5.5964    0.5996    0.3519 C   0  0  0  0  0  0  0  0  0  0  0  0
    4.5593    1.3584   -0.0266 C   0  0  0  0  0  0  0  0  0  0  0  0
    3.1873    0.9302   -0.1722 C   0  0  0  0  0  0  0  0  0  0  0  0
    2.7393   -0.3384    0.0407 C   0  0  0  0  0  0  0  0  0  0  0  0
    1.3680   -0.6731   -0.1295 C   0  0  0  0  0  0  0  0  0  0  0  0
    0.8491   -1.9618    0.0725 C   0  0  0  0  0  0  0  0  0  0  0  0
   -0.4847   -2.2140   -0.1135 C   0  0  0  0  0  0  0  0  0  0  0  0
   -1.3564   -1.1865   -0.5092 C   0  0  0  0  0  0  0  0  0  0  0  0
   -2.7583   -1.4917   -0.7039 C   0  0  0  0  0  0  0  0  0  0  0  0
   -3.8161   -0.6856   -1.1008 C   0  0  0  0  0  0  0  0  0  0  0  0
   -4.8791   -1.5127   -1.1235 N   0  0  0  0  0  0  0  0  0  0  0  0
   -6.2510   -1.1937   -1.4186 C   0  0  0  0  0  0  0  0  0  0  0  0
   -6.8600   -0.3860   -0.2977 C   0  0  0  0  0  0  0  0  0  0  0  0
   -7.3926    0.8736   -0.5286 C   0  0  0  0  0  0  0  0  0  0  0  0
   -7.9341    1.6030    0.5164 C   0  0  0  0  0  0  0  0  0  0  0  0
   -7.9374    1.0815    1.7984 C   0  0  0  0  0  0  0  0  0  0  0  0
   -7.4014   -0.1740    2.0346 C   0  0  0  0  0  0  0  0  0  0  0  0
   -6.8662   -0.9063    0.9909 C   0  0  0  0  0  0  0  0  0  0  0  0
   -4.5106   -2.7360   -0.7587 N   0  0  0  0  0  0  0  0  0  0  0  0
   -3.2619   -2.7382   -0.5116 N   0  0  0  0  0  0  0  0  0  0  0  0
   -0.8628    0.0958   -0.7115 C   0  0  0  0  0  0  0  0  0  0  0  0
    0.4890    0.3515   -0.5241 C   0  0  0  0  0  0  0  0  0  0  0  0
    0.9284    1.6126   -0.7352 O   0  0  0  0  0  0  0  0  0  0  0  0
    2.2367    1.9772   -0.5865 C   0  0  0  0  0  0  0  0  0  0  0  0
    2.5259    3.1253   -0.8033 O   0  0  0  0  0  0  0  0  0  0  0  0
   10.9539    0.8342   -0.1995 H   0  0  0  0  0  0  0  0  0  0  0  0
    9.8342   -0.4094   -0.7804 H   0  0  0  0  0  0  0  0  0  0  0  0
    9.4619    1.3043   -1.0247 H   0  0  0  0  0  0  0  0  0  0  0  0
    9.6208   -0.0847    1.7025 H   0  0  0  0  0  0  0  0  0  0  0  0
    9.2181    1.6368    1.4118 H   0  0  0  0  0  0  0  0  0  0  0  0
    5.5160   -0.4478    0.5988 H   0  0  0  0  0  0  0  0  0  0  0  0
    4.7396    2.4030   -0.2509 H   0  0  0  0  0  0  0  0  0  0  0  0
    3.4209   -1.1201    0.3431 H   0  0  0  0  0  0  0  0  0  0  0  0
    1.5216   -2.7501    0.3758 H   0  0  0  0  0  0  0  0  0  0  0  0
   -0.8970   -3.1990    0.0362 H   0  0  0  0  0  0  0  0  0  0  0  0
   -3.8892    0.3505   -1.3532 H   0  0  0  0  0  0  0  0  0  0  0  0
   -6.7720   -2.1491   -1.5290 H   0  0  0  0  0  0  0  0  0  0  0  0
   -6.3006   -0.6431   -2.3624 H   0  0  0  0  0  0  0  0  0  0  0  0
   -7.3903    1.2846   -1.5283 H   0  0  0  0  0  0  0  0  0  0  0  0
   -8.3510    2.5810    0.3278 H   0  0  0  0  0  0  0  0  0  0  0  0
   -8.3569    1.6525    2.6128 H   0  0  0  0  0  0  0  0  0  0  0  0
   -7.4012   -0.5841    3.0332 H   0  0  0  0  0  0  0  0  0  0  0  0
   -6.4470   -1.8862    1.1699 H   0  0  0  0  0  0  0  0  0  0  0  0
   -1.5042    0.9076   -1.0137 H   0  0  0  0  0  0  0  0  0  0  0  0
  1  2  1  0  0  0  0
  2  3  1  0  0  0  0
  3  4  1  0  0  0  0
  4  5  2  0  0  0  0
  4  6  1  0  0  0  0
  6  7  2  0  0  0  0
  7  8  1  0  0  0  0
  8  9  2  0  0  0  0
  9 10  1  0  0  0  0
 10 11  2  0  0  0  0
 11 12  1  0  0  0  0
 12 13  2  0  0  0  0
 13 14  1  0  0  0  0
 14 15  2  0  0  0  0
 15 16  1  0  0  0  0
 16 17  1  0  0  0  0
 17 18  1  0  0  0  0
 18 19  2  0  0  0  0
 19 20  1  0  0  0  0
 20 21  2  0  0  0  0
 21 22  1  0  0  0  0
 22 23  2  0  0  0  0
 16 24  1  0  0  0  0
 24 25  2  0  0  0  0
 13 26  1  0  0  0  0
 26 27  2  0  0  0  0
 27 28  1  0  0  0  0
 28 29  1  0  0  0  0
 29 30  2  0  0  0  0
 29  8  1  0  0  0  0
 27 10  1  0  0  0  0
 25 14  1  0  0  0  0
 23 18  1  0  0  0  0
  1 31  1  0  0  0  0
  1 32  1  0  0  0  0
  1 33  1  0  0  0  0
  2 34  1  0  0  0  0
  2 35  1  0  0  0  0
  6 36  1  0  0  0  0
  7 37  1  0  0  0  0
  9 38  1  0  0  0  0
 11 39  1  0  0  0  0
 12 40  1  0  0  0  0
 15 41  1  0  0  0  0
 17 42  1  0  0  0  0
 17 43  1  0  0  0  0
 19 44  1  0  0  0  0
 20 45  1  0  0  0  0
 21 46  1  0  0  0  0
 22 47  1  0  0  0  0
 23 48  1  0  0  0  0
 26 49  1  0  0  0  0
M  END
