
  xtb     03022213533D
 energy: -56.843741674197 gnorm: 0.000094623389 xtb: 6.4.1 (afa7bdf)
 39 42  0     0  0            999 V2000
   -1.5402    0.7483    1.2143 C   0  0  0  0  0  0  0  0  0  0  0  0
   -1.5823   -0.6311    1.2273 C   0  0  0  0  0  0  0  0  0  0  0  0
   -1.5480   -1.3570    0.0422 C   0  0  0  0  0  0  0  0  0  0  0  0
   -1.6088   -0.6548   -1.1526 C   0  0  0  0  0  0  0  0  0  0  0  0
   -1.5666    0.7289   -1.1656 C   0  0  0  0  0  0  0  0  0  0  0  0
   -1.4624    1.4483    0.0158 C   0  0  0  0  0  0  0  0  0  0  0  0
   -1.2348    2.9342    0.0061 C   0  0  0  0  0  0  0  0  0  0  0  0
    0.0645    3.3470    0.7135 C   0  0  0  0  0  0  0  0  0  0  0  0
    1.3481    2.8892    0.0037 C   0  0  0  0  0  0  0  0  0  0  0  0
    1.5066    1.3980    0.0114 C   0  0  0  0  0  0  0  0  0  0  0  0
    1.6813    0.6637    1.1556 C   0  0  0  0  0  0  0  0  0  0  0  0
    1.6383   -0.7437    1.1686 C   0  0  0  0  0  0  0  0  0  0  0  0
    1.4187   -1.4869    0.0379 C   0  0  0  0  0  0  0  0  0  0  0  0
    1.3680   -0.7729   -1.1770 C   0  0  0  0  0  0  0  0  0  0  0  0
    1.2483   -1.2804   -2.4042 N   0  0  0  0  0  0  0  0  0  0  0  0
    1.1965   -0.0684   -3.4596 S   0  0  0  0  0  0  0  0  0  0  0  0
    1.3226    1.1573   -2.4266 N   0  0  0  0  0  0  0  0  0  0  0  0
    1.4119    0.6661   -1.1903 C   0  0  0  0  0  0  0  0  0  0  0  0
    1.1697   -2.9656    0.0577 C   0  0  0  0  0  0  0  0  0  0  0  0
   -0.1386   -3.3315    0.7757 C   0  0  0  0  0  0  0  0  0  0  0  0
   -1.4112   -2.8539    0.0605 C   0  0  0  0  0  0  0  0  0  0  0  0
   -1.5390    1.2884    2.1506 H   0  0  0  0  0  0  0  0  0  0  0  0
   -1.6134   -1.1527    2.1736 H   0  0  0  0  0  0  0  0  0  0  0  0
   -1.6469   -1.1969   -2.0876 H   0  0  0  0  0  0  0  0  0  0  0  0
   -1.5722    1.2546   -2.1106 H   0  0  0  0  0  0  0  0  0  0  0  0
   -1.2091    3.2911   -1.0253 H   0  0  0  0  0  0  0  0  0  0  0  0
   -2.0675    3.4311    0.5140 H   0  0  0  0  0  0  0  0  0  0  0  0
    0.0616    2.9559    1.7322 H   0  0  0  0  0  0  0  0  0  0  0  0
    0.0850    4.4380    0.7758 H   0  0  0  0  0  0  0  0  0  0  0  0
    1.3371    3.2326   -1.0315 H   0  0  0  0  0  0  0  0  0  0  0  0
    2.2001    3.3489    0.5127 H   0  0  0  0  0  0  0  0  0  0  0  0
    1.8041    1.1785    2.0979 H   0  0  0  0  0  0  0  0  0  0  0  0
    1.7302   -1.2476    2.1203 H   0  0  0  0  0  0  0  0  0  0  0  0
    1.9927   -3.4669    0.5749 H   0  0  0  0  0  0  0  0  0  0  0  0
    1.1367   -3.3266   -0.9711 H   0  0  0  0  0  0  0  0  0  0  0  0
   -0.1842   -4.4203    0.8583 H   0  0  0  0  0  0  0  0  0  0  0  0
   -0.1168   -2.9219    1.7869 H   0  0  0  0  0  0  0  0  0  0  0  0
   -1.4084   -3.2311   -0.9640 H   0  0  0  0  0  0  0  0  0  0  0  0
   -2.2720   -3.2896    0.5777 H   0  0  0  0  0  0  0  0  0  0  0  0
  1  2  1  0  0  0  0
  2  3  2  0  0  0  0
  3  4  1  0  0  0  0
  4  5  2  0  0  0  0
  5  6  1  0  0  0  0
  6  7  1  0  0  0  0
  7  8  1  0  0  0  0
  8  9  1  0  0  0  0
  9 10  1  0  0  0  0
 10 11  2  0  0  0  0
 11 12  1  0  0  0  0
 12 13  2  0  0  0  0
 13 14  1  0  0  0  0
 14 15  2  0  0  0  0
 15 16  1  0  0  0  0
 16 17  1  0  0  0  0
 17 18  2  0  0  0  0
 13 19  1  0  0  0  0
 19 20  1  0  0  0  0
 20 21  1  0  0  0  0
  6  1  2  0  0  0  0
 18 10  1  0  0  0  0
 21  3  1  0  0  0  0
 18 14  1  0  0  0  0
  1 22  1  0  0  0  0
  2 23  1  0  0  0  0
  4 24  1  0  0  0  0
  5 25  1  0  0  0  0
  7 26  1  0  0  0  0
  7 27  1  0  0  0  0
  8 28  1  0  0  0  0
  8 29  1  0  0  0  0
  9 30  1  0  0  0  0
  9 31  1  0  0  0  0
 11 32  1  0  0  0  0
 12 33  1  0  0  0  0
 19 34  1  0  0  0  0
 19 35  1  0  0  0  0
 20 36  1  0  0  0  0
 20 37  1  0  0  0  0
 21 38  1  0  0  0  0
 21 39  1  0  0  0  0
M  END
