
  xtb     03022214543D
 energy: -112.331948549466 gnorm: 0.000059820525 xtb: 6.4.1 (afa7bdf)
 71 74  0     0  0            999 V2000
    9.1045   -3.7751   -0.1625 C   0  0  0  0  0  0  0  0  0  0  0  0
    8.8806   -2.3560   -0.0477 N   0  0  0  0  0  0  0  0  0  0  0  0
   10.0176   -1.4742    0.0365 C   0  0  0  0  0  0  0  0  0  0  0  0
    7.6091   -1.8523   -0.0316 C   0  0  0  0  0  0  0  0  0  0  0  0
    6.4856   -2.6962   -0.0571 C   0  0  0  0  0  0  0  0  0  0  0  0
    5.2087   -2.1882   -0.0390 C   0  0  0  0  0  0  0  0  0  0  0  0
    4.9650   -0.8110    0.0056 C   0  0  0  0  0  0  0  0  0  0  0  0
    3.6473   -0.2312    0.0270 C   0  0  0  0  0  0  0  0  0  0  0  0
    2.4704   -0.8809    0.0031 C   0  0  0  0  0  0  0  0  0  0  0  0
    1.2000   -0.1927    0.0292 C   0  0  0  0  0  0  0  0  0  0  0  0
   -0.0018   -0.9046    0.0021 C   0  0  0  0  0  0  0  0  0  0  0  0
   -1.1955   -0.1793    0.0294 C   0  0  0  0  0  0  0  0  0  0  0  0
   -2.5176   -0.7663    0.0060 C   0  0  0  0  0  0  0  0  0  0  0  0
   -2.7915   -2.0808   -0.0462 C   0  0  0  0  0  0  0  0  0  0  0  0
   -4.0977   -2.6907   -0.0716 C   0  0  0  0  0  0  0  0  0  0  0  0
   -4.2020   -4.0856   -0.1182 C   0  0  0  0  0  0  0  0  0  0  0  0
   -5.4180   -4.7260   -0.1436 C   0  0  0  0  0  0  0  0  0  0  0  0
   -6.6194   -3.9991   -0.1246 C   0  0  0  0  0  0  0  0  0  0  0  0
   -7.8343   -4.6259   -0.1514 N   0  0  0  0  0  0  0  0  0  0  0  0
   -9.0526   -3.8746    0.0192 C   0  0  0  0  0  0  0  0  0  0  0  0
   -7.9199   -6.0537   -0.3290 C   0  0  0  0  0  0  0  0  0  0  0  0
   -6.5177   -2.5981   -0.0790 C   0  0  0  0  0  0  0  0  0  0  0  0
   -5.2962   -1.9689   -0.0532 C   0  0  0  0  0  0  0  0  0  0  0  0
   -1.1687    1.1579    0.0807 N   0  0  0  0  0  0  0  0  0  0  0  0
    0.0182    1.7544    0.1038 C   0  0  0  0  0  0  0  0  0  0  0  0
    0.0570    3.2085    0.1600 C   0  0  0  0  0  0  0  0  0  0  0  0
   -1.0523    3.9575    0.1891 C   0  0  0  0  0  0  0  0  0  0  0  0
   -1.1248    5.4040    0.2449 C   0  0  0  0  0  0  0  0  0  0  0  0
   -2.3830    6.0159    0.2530 C   0  0  0  0  0  0  0  0  0  0  0  0
   -2.5124    7.3881    0.3048 C   0  0  0  0  0  0  0  0  0  0  0  0
   -1.3728    8.1820    0.3462 C   0  0  0  0  0  0  0  0  0  0  0  0
   -1.5015    9.6726    0.4353 C   0  0  0  0  0  0  0  0  0  0  0  0
   -0.4813   10.3239   -0.1478 F   0  0  0  0  0  0  0  0  0  0  0  0
   -1.5316   10.1065    1.7145 F   0  0  0  0  0  0  0  0  0  0  0  0
   -2.6238   10.1394   -0.1362 F   0  0  0  0  0  0  0  0  0  0  0  0
   -0.1117    7.5965    0.3444 C   0  0  0  0  0  0  0  0  0  0  0  0
    0.0074    6.2237    0.2922 C   0  0  0  0  0  0  0  0  0  0  0  0
    1.1972    1.1450    0.0802 N   0  0  0  0  0  0  0  0  0  0  0  0
    6.0859    0.0271    0.0308 C   0  0  0  0  0  0  0  0  0  0  0  0
    7.3675   -0.4691    0.0126 C   0  0  0  0  0  0  0  0  0  0  0  0
    8.6252   -4.1776   -1.0599 H   0  0  0  0  0  0  0  0  0  0  0  0
   10.1716   -3.9707   -0.2348 H   0  0  0  0  0  0  0  0  0  0  0  0
    8.7178   -4.3122    0.7101 H   0  0  0  0  0  0  0  0  0  0  0  0
   10.0810   -0.8181   -0.8383 H   0  0  0  0  0  0  0  0  0  0  0  0
   10.9311   -2.0617    0.0866 H   0  0  0  0  0  0  0  0  0  0  0  0
    9.9656   -0.8526    0.9351 H   0  0  0  0  0  0  0  0  0  0  0  0
    6.6106   -3.7663   -0.0866 H   0  0  0  0  0  0  0  0  0  0  0  0
    4.3790   -2.8784   -0.0581 H   0  0  0  0  0  0  0  0  0  0  0  0
    3.6046    0.8498    0.0664 H   0  0  0  0  0  0  0  0  0  0  0  0
    2.4157   -1.9598   -0.0372 H   0  0  0  0  0  0  0  0  0  0  0  0
    0.0071   -1.9817   -0.0389 H   0  0  0  0  0  0  0  0  0  0  0  0
   -3.3106   -0.0335    0.0346 H   0  0  0  0  0  0  0  0  0  0  0  0
   -1.9714   -2.7879   -0.0728 H   0  0  0  0  0  0  0  0  0  0  0  0
   -3.2987   -4.6803   -0.1306 H   0  0  0  0  0  0  0  0  0  0  0  0
   -5.4322   -5.8034   -0.1681 H   0  0  0  0  0  0  0  0  0  0  0  0
   -9.8874   -4.5602    0.1442 H   0  0  0  0  0  0  0  0  0  0  0  0
   -8.9986   -3.2432    0.9099 H   0  0  0  0  0  0  0  0  0  0  0  0
   -9.2585   -3.2379   -0.8485 H   0  0  0  0  0  0  0  0  0  0  0  0
   -7.3421   -6.3709   -1.2009 H   0  0  0  0  0  0  0  0  0  0  0  0
   -7.5509   -6.5940    0.5502 H   0  0  0  0  0  0  0  0  0  0  0  0
   -8.9568   -6.3376   -0.4931 H   0  0  0  0  0  0  0  0  0  0  0  0
   -7.4075   -1.9899   -0.0743 H   0  0  0  0  0  0  0  0  0  0  0  0
   -5.2707   -0.8907   -0.0222 H   0  0  0  0  0  0  0  0  0  0  0  0
    1.0529    3.6245    0.1753 H   0  0  0  0  0  0  0  0  0  0  0  0
   -1.9997    3.4350    0.1678 H   0  0  0  0  0  0  0  0  0  0  0  0
   -3.2687    5.3994    0.2181 H   0  0  0  0  0  0  0  0  0  0  0  0
   -3.4887    7.8486    0.3084 H   0  0  0  0  0  0  0  0  0  0  0  0
    0.7681    8.2213    0.3788 H   0  0  0  0  0  0  0  0  0  0  0  0
    0.9906    5.7819    0.2894 H   0  0  0  0  0  0  0  0  0  0  0  0
    5.9379    1.0974    0.0636 H   0  0  0  0  0  0  0  0  0  0  0  0
    8.1893    0.2278    0.0283 H   0  0  0  0  0  0  0  0  0  0  0  0
  1  2  1  0  0  0  0
  2  3  1  0  0  0  0
  2  4  1  0  0  0  0
  4  5  2  0  0  0  0
  5  6  1  0  0  0  0
  6  7  2  0  0  0  0
  7  8  1  0  0  0  0
  8  9  2  0  0  0  0
  9 10  1  0  0  0  0
 10 11  2  0  0  0  0
 11 12  1  0  0  0  0
 12 13  1  0  0  0  0
 13 14  2  0  0  0  0
 14 15  1  0  0  0  0
 15 16  2  0  0  0  0
 16 17  1  0  0  0  0
 17 18  2  0  0  0  0
 18 19  1  0  0  0  0
 19 20  1  0  0  0  0
 19 21  1  0  0  0  0
 18 22  1  0  0  0  0
 22 23  2  0  0  0  0
 12 24  2  0  0  0  0
 24 25  1  0  0  0  0
 25 26  1  0  0  0  0
 26 27  2  0  0  0  0
 27 28  1  0  0  0  0
 28 29  2  0  0  0  0
 29 30  1  0  0  0  0
 30 31  2  0  0  0  0
 31 32  1  0  0  0  0
 32 33  1  0  0  0  0
 32 34  1  0  0  0  0
 32 35  1  0  0  0  0
 31 36  1  0  0  0  0
 36 37  2  0  0  0  0
 25 38  2  0  0  0  0
  7 39  1  0  0  0  0
 39 40  2  0  0  0  0
 40  4  1  0  0  0  0
 38 10  1  0  0  0  0
 23 15  1  0  0  0  0
 37 28  1  0  0  0  0
  1 41  1  0  0  0  0
  1 42  1  0  0  0  0
  1 43  1  0  0  0  0
  3 44  1  0  0  0  0
  3 45  1  0  0  0  0
  3 46  1  0  0  0  0
  5 47  1  0  0  0  0
  6 48  1  0  0  0  0
  8 49  1  0  0  0  0
  9 50  1  0  0  0  0
 11 51  1  0  0  0  0
 13 52  1  0  0  0  0
 14 53  1  0  0  0  0
 16 54  1  0  0  0  0
 17 55  1  0  0  0  0
 20 56  1  0  0  0  0
 20 57  1  0  0  0  0
 20 58  1  0  0  0  0
 21 59  1  0  0  0  0
 21 60  1  0  0  0  0
 21 61  1  0  0  0  0
 22 62  1  0  0  0  0
 23 63  1  0  0  0  0
 26 64  1  0  0  0  0
 27 65  1  0  0  0  0
 29 66  1  0  0  0  0
 30 67  1  0  0  0  0
 36 68  1  0  0  0  0
 37 69  1  0  0  0  0
 39 70  1  0  0  0  0
 40 71  1  0  0  0  0
M  END
