
  xtb     03022216143D
 energy: -102.634503171375 gnorm: 0.000132705004 xtb: 6.4.1 (afa7bdf)
 65 67  0     0  0            999 V2000
   -8.1272    1.9149    2.0061 C   0  0  0  0  0  0  0  0  0  0  0  0
   -8.0766    0.5935    1.2364 C   0  0  0  0  0  0  0  0  0  0  0  0
   -7.2232    0.6657    0.0714 N   0  0  0  0  0  0  0  0  0  0  0  0
   -7.8754    1.0416   -1.1636 C   0  0  0  0  0  0  0  0  0  0  0  0
   -8.3642   -0.1706   -1.9581 C   0  0  0  0  0  0  0  0  0  0  0  0
   -5.8891    0.3895    0.1285 C   0  0  0  0  0  0  0  0  0  0  0  0
   -5.2337    0.1786    1.3615 C   0  0  0  0  0  0  0  0  0  0  0  0
   -3.8946   -0.1013    1.4098 C   0  0  0  0  0  0  0  0  0  0  0  0
   -3.1175   -0.1812    0.2485 C   0  0  0  0  0  0  0  0  0  0  0  0
   -1.7203   -0.4766    0.3068 C   0  0  0  0  0  0  0  0  0  0  0  0
   -0.9212   -0.5595   -0.7260 N   0  0  0  0  0  0  0  0  0  0  0  0
    0.3124   -0.8655   -0.2119 C   0  0  0  0  0  0  0  0  0  0  0  0
    1.5398   -1.0775   -0.8221 C   0  0  0  0  0  0  0  0  0  0  0  0
    2.6126   -1.3953   -0.0044 C   0  0  0  0  0  0  0  0  0  0  0  0
    3.9873   -1.6130   -0.6113 C   0  0  0  0  0  0  0  0  0  0  0  0
    4.6480   -0.3569   -0.8744 N   0  0  0  0  0  0  0  0  0  0  0  0
    5.6347    0.1067   -0.0676 C   0  0  0  0  0  0  0  0  0  0  0  0
    5.9467   -0.4197    0.9743 O   0  0  0  0  0  0  0  0  0  0  0  0
    6.1669    1.2161   -0.6012 O   0  0  0  0  0  0  0  0  0  0  0  0
    7.2123    1.9361    0.0964 C   0  0  0  0  0  0  0  0  0  0  0  0
    7.5272    3.1152   -0.8249 C   0  0  0  0  0  0  0  0  0  0  0  0
    8.4444    1.0479    0.2688 C   0  0  0  0  0  0  0  0  0  0  0  0
    6.7011    2.4332    1.4483 C   0  0  0  0  0  0  0  0  0  0  0  0
    3.8577   -2.3991   -1.9080 C   0  0  0  0  0  0  0  0  0  0  0  0
    4.0389   -1.9358   -3.0033 O   0  0  0  0  0  0  0  0  0  0  0  0
    3.4953   -3.6565   -1.6707 O   0  0  0  0  0  0  0  0  0  0  0  0
    3.2793   -4.4781   -2.8128 C   0  0  0  0  0  0  0  0  0  0  0  0
    2.4684   -1.4775    1.3827 C   0  0  0  0  0  0  0  0  0  0  0  0
    1.2535   -1.2576    2.0070 C   0  0  0  0  0  0  0  0  0  0  0  0
    0.1835   -0.9576    1.1895 C   0  0  0  0  0  0  0  0  0  0  0  0
   -1.1121   -0.7063    1.5037 O   0  0  0  0  0  0  0  0  0  0  0  0
   -3.7534    0.0342   -0.9935 C   0  0  0  0  0  0  0  0  0  0  0  0
   -3.0881   -0.0252   -2.1569 O   0  0  0  0  0  0  0  0  0  0  0  0
   -5.1107    0.3059   -1.0328 C   0  0  0  0  0  0  0  0  0  0  0  0
   -7.1344    2.1970    2.3462 H   0  0  0  0  0  0  0  0  0  0  0  0
   -8.5060    2.7103    1.3686 H   0  0  0  0  0  0  0  0  0  0  0  0
   -8.7813    1.8209    2.8690 H   0  0  0  0  0  0  0  0  0  0  0  0
   -9.0842    0.3335    0.9002 H   0  0  0  0  0  0  0  0  0  0  0  0
   -7.7380   -0.2119    1.8920 H   0  0  0  0  0  0  0  0  0  0  0  0
   -8.7285    1.6782   -0.9131 H   0  0  0  0  0  0  0  0  0  0  0  0
   -7.1915    1.6388   -1.7704 H   0  0  0  0  0  0  0  0  0  0  0  0
   -8.8550    0.1546   -2.8716 H   0  0  0  0  0  0  0  0  0  0  0  0
   -9.0735   -0.7489   -1.3703 H   0  0  0  0  0  0  0  0  0  0  0  0
   -7.5308   -0.8172   -2.2181 H   0  0  0  0  0  0  0  0  0  0  0  0
   -5.7734    0.2455    2.2905 H   0  0  0  0  0  0  0  0  0  0  0  0
   -3.4116   -0.2592    2.3623 H   0  0  0  0  0  0  0  0  0  0  0  0
    1.6430   -0.9946   -1.8922 H   0  0  0  0  0  0  0  0  0  0  0  0
    4.6078   -2.1725    0.0982 H   0  0  0  0  0  0  0  0  0  0  0  0
    4.5106    0.0625   -1.7817 H   0  0  0  0  0  0  0  0  0  0  0  0
    6.6379    3.7231   -0.9682 H   0  0  0  0  0  0  0  0  0  0  0  0
    8.3111    3.7278   -0.3896 H   0  0  0  0  0  0  0  0  0  0  0  0
    7.8561    2.7518   -1.7947 H   0  0  0  0  0  0  0  0  0  0  0  0
    8.7684    0.6677   -0.6977 H   0  0  0  0  0  0  0  0  0  0  0  0
    8.2119    0.2080    0.9173 H   0  0  0  0  0  0  0  0  0  0  0  0
    9.2524    1.6241    0.7108 H   0  0  0  0  0  0  0  0  0  0  0  0
    7.4626    3.0432    1.9262 H   0  0  0  0  0  0  0  0  0  0  0  0
    5.8027    3.0310    1.3104 H   0  0  0  0  0  0  0  0  0  0  0  0
    6.4665    1.5902    2.0921 H   0  0  0  0  0  0  0  0  0  0  0  0
    2.3782   -4.1589   -3.3398 H   0  0  0  0  0  0  0  0  0  0  0  0
    4.1303   -4.4117   -3.4932 H   0  0  0  0  0  0  0  0  0  0  0  0
    3.1617   -5.4919   -2.4398 H   0  0  0  0  0  0  0  0  0  0  0  0
    3.3370   -1.7066    1.9800 H   0  0  0  0  0  0  0  0  0  0  0  0
    1.1445   -1.3179    3.0776 H   0  0  0  0  0  0  0  0  0  0  0  0
   -2.1428   -0.2251   -1.9686 H   0  0  0  0  0  0  0  0  0  0  0  0
   -5.5347    0.4394   -2.0128 H   0  0  0  0  0  0  0  0  0  0  0  0
  1  2  1  0  0  0  0
  2  3  1  0  0  0  0
  3  4  1  0  0  0  0
  4  5  1  0  0  0  0
  3  6  1  0  0  0  0
  6  7  2  0  0  0  0
  7  8  1  0  0  0  0
  8  9  2  0  0  0  0
  9 10  1  0  0  0  0
 10 11  2  0  0  0  0
 11 12  1  0  0  0  0
 12 13  2  0  0  0  0
 13 14  1  0  0  0  0
 14 15  1  0  0  0  0
 15 16  1  0  0  0  0
 16 17  1  0  0  0  0
 17 18  2  0  0  0  0
 17 19  1  0  0  0  0
 19 20  1  0  0  0  0
 20 21  1  0  0  0  0
 20 22  1  0  0  0  0
 20 23  1  0  0  0  0
 15 24  1  0  0  0  0
 24 25  2  0  0  0  0
 24 26  1  0  0  0  0
 26 27  1  0  0  0  0
 14 28  2  0  0  0  0
 28 29  1  0  0  0  0
 29 30  2  0  0  0  0
 30 31  1  0  0  0  0
  9 32  1  0  0  0  0
 32 33  1  0  0  0  0
 32 34  2  0  0  0  0
 34  6  1  0  0  0  0
 31 10  1  0  0  0  0
 30 12  1  0  0  0  0
  1 35  1  0  0  0  0
  1 36  1  0  0  0  0
  1 37  1  0  0  0  0
  2 38  1  0  0  0  0
  2 39  1  0  0  0  0
  4 40  1  0  0  0  0
  4 41  1  0  0  0  0
  5 42  1  0  0  0  0
  5 43  1  0  0  0  0
  5 44  1  0  0  0  0
  7 45  1  0  0  0  0
  8 46  1  0  0  0  0
 13 47  1  0  0  0  0
 15 48  1  0  0  0  0
 16 49  1  0  0  0  0
 21 50  1  0  0  0  0
 21 51  1  0  0  0  0
 21 52  1  0  0  0  0
 22 53  1  0  0  0  0
 22 54  1  0  0  0  0
 22 55  1  0  0  0  0
 23 56  1  0  0  0  0
 23 57  1  0  0  0  0
 23 58  1  0  0  0  0
 27 59  1  0  0  0  0
 27 60  1  0  0  0  0
 27 61  1  0  0  0  0
 28 62  1  0  0  0  0
 29 63  1  0  0  0  0
 33 64  1  0  0  0  0
 34 65  1  0  0  0  0
M  END
