
  xtb     03022215233D
 energy: -83.424783097060 gnorm: 0.000292622332 xtb: 6.4.1 (afa7bdf)
 53 56  0     0  0            999 V2000
   -4.4892    4.2526   -2.3941 C   0  0  0  0  0  0  0  0  0  0  0  0
   -3.7571    3.2063   -1.6112 C   0  0  0  0  0  0  0  0  0  0  0  0
   -2.4467    3.4234   -1.1983 C   0  0  0  0  0  0  0  0  0  0  0  0
   -1.7549    2.4664   -0.4844 C   0  0  0  0  0  0  0  0  0  0  0  0
   -2.3608    1.2509   -0.1716 C   0  0  0  0  0  0  0  0  0  0  0  0
   -1.6691    0.2745    0.5654 N   0  0  0  0  0  0  0  0  0  0  0  0
   -2.3644   -0.4355    1.5586 C   0  0  0  0  0  0  0  0  0  0  0  0
   -2.1584   -1.8026    1.7315 C   0  0  0  0  0  0  0  0  0  0  0  0
   -2.8519   -2.4921    2.7059 C   0  0  0  0  0  0  0  0  0  0  0  0
   -3.7727   -1.8488    3.5250 C   0  0  0  0  0  0  0  0  0  0  0  0
   -4.5400   -2.6107    4.5616 C   0  0  0  0  0  0  0  0  0  0  0  0
   -3.9796   -0.4872    3.3396 C   0  0  0  0  0  0  0  0  0  0  0  0
   -3.2860    0.2160    2.3746 C   0  0  0  0  0  0  0  0  0  0  0  0
   -0.3330    0.0186    0.3173 C   0  0  0  0  0  0  0  0  0  0  0  0
    0.5162   -0.4194    1.3425 C   0  0  0  0  0  0  0  0  0  0  0  0
    1.8428   -0.6774    1.0959 C   0  0  0  0  0  0  0  0  0  0  0  0
    2.3802   -0.5110   -0.1863 C   0  0  0  0  0  0  0  0  0  0  0  0
    3.7662   -0.7856   -0.4576 C   0  0  0  0  0  0  0  0  0  0  0  0
    4.7831   -1.2478    0.3671 C   0  0  0  0  0  0  0  0  0  0  0  0
    5.9296   -1.3377   -0.4188 C   0  0  0  0  0  0  0  0  0  0  0  0
    5.5678   -0.9259   -1.6962 C   0  0  0  0  0  0  0  0  0  0  0  0
    6.2733   -0.7971   -2.9109 C   0  0  0  0  0  0  0  0  0  0  0  0
    7.5945   -1.0751   -3.1197 C   0  0  0  0  0  0  0  0  0  0  0  0
    8.4824   -1.5462   -2.1333 C   0  0  0  0  0  0  0  0  0  0  0  0
    9.2300   -1.9306   -1.3515 N   0  0  0  0  0  0  0  0  0  0  0  0
    8.1678   -0.8964   -4.3961 C   0  0  0  0  0  0  0  0  0  0  0  0
    8.6328   -0.7497   -5.4346 N   0  0  0  0  0  0  0  0  0  0  0  0
    4.2470   -0.5941   -1.6982 O   0  0  0  0  0  0  0  0  0  0  0  0
    1.5307   -0.0700   -1.2093 C   0  0  0  0  0  0  0  0  0  0  0  0
    0.2045    0.1905   -0.9650 C   0  0  0  0  0  0  0  0  0  0  0  0
   -3.6719    1.0255   -0.5821 C   0  0  0  0  0  0  0  0  0  0  0  0
   -4.3561    1.9953   -1.2891 C   0  0  0  0  0  0  0  0  0  0  0  0
   -5.5550    4.0414   -2.4252 H   0  0  0  0  0  0  0  0  0  0  0  0
   -4.3376    5.2371   -1.9557 H   0  0  0  0  0  0  0  0  0  0  0  0
   -4.1166    4.2839   -3.4183 H   0  0  0  0  0  0  0  0  0  0  0  0
   -1.9652    4.3622   -1.4316 H   0  0  0  0  0  0  0  0  0  0  0  0
   -0.7427    2.6562   -0.1583 H   0  0  0  0  0  0  0  0  0  0  0  0
   -1.4552   -2.3201    1.0955 H   0  0  0  0  0  0  0  0  0  0  0  0
   -2.6807   -3.5520    2.8273 H   0  0  0  0  0  0  0  0  0  0  0  0
   -5.4391   -3.0411    4.1188 H   0  0  0  0  0  0  0  0  0  0  0  0
   -4.8453   -1.9583    5.3761 H   0  0  0  0  0  0  0  0  0  0  0  0
   -3.9429   -3.4253    4.9651 H   0  0  0  0  0  0  0  0  0  0  0  0
   -4.6892    0.0338    3.9660 H   0  0  0  0  0  0  0  0  0  0  0  0
   -3.4524    1.2757    2.2483 H   0  0  0  0  0  0  0  0  0  0  0  0
    0.1202   -0.5413    2.3395 H   0  0  0  0  0  0  0  0  0  0  0  0
    2.4781   -1.0019    1.9047 H   0  0  0  0  0  0  0  0  0  0  0  0
    4.7043   -1.4905    1.4065 H   0  0  0  0  0  0  0  0  0  0  0  0
    6.9023   -1.6601   -0.1088 H   0  0  0  0  0  0  0  0  0  0  0  0
    5.6921   -0.4400   -3.7519 H   0  0  0  0  0  0  0  0  0  0  0  0
    1.9287    0.0540   -2.2047 H   0  0  0  0  0  0  0  0  0  0  0  0
   -0.4383    0.5169   -1.7688 H   0  0  0  0  0  0  0  0  0  0  0  0
   -4.1501    0.0870   -0.3431 H   0  0  0  0  0  0  0  0  0  0  0  0
   -5.3727    1.8031   -1.6005 H   0  0  0  0  0  0  0  0  0  0  0  0
  1  2  1  0  0  0  0
  2  3  2  0  0  0  0
  3  4  1  0  0  0  0
  4  5  2  0  0  0  0
  5  6  1  0  0  0  0
  6  7  1  0  0  0  0
  7  8  2  0  0  0  0
  8  9  1  0  0  0  0
  9 10  2  0  0  0  0
 10 11  1  0  0  0  0
 10 12  1  0  0  0  0
 12 13  2  0  0  0  0
  6 14  1  0  0  0  0
 14 15  2  0  0  0  0
 15 16  1  0  0  0  0
 16 17  2  0  0  0  0
 17 18  1  0  0  0  0
 18 19  2  0  0  0  0
 19 20  1  0  0  0  0
 20 21  2  0  0  0  0
 21 22  1  0  0  0  0
 22 23  2  0  0  0  0
 23 24  1  0  0  0  0
 24 25  3  0  0  0  0
 23 26  1  0  0  0  0
 26 27  3  0  0  0  0
 21 28  1  0  0  0  0
 17 29  1  0  0  0  0
 29 30  2  0  0  0  0
  5 31  1  0  0  0  0
 31 32  2  0  0  0  0
 32  2  1  0  0  0  0
 13  7  1  0  0  0  0
 30 14  1  0  0  0  0
 28 18  1  0  0  0  0
  1 33  1  0  0  0  0
  1 34  1  0  0  0  0
  1 35  1  0  0  0  0
  3 36  1  0  0  0  0
  4 37  1  0  0  0  0
  8 38  1  0  0  0  0
  9 39  1  0  0  0  0
 11 40  1  0  0  0  0
 11 41  1  0  0  0  0
 11 42  1  0  0  0  0
 12 43  1  0  0  0  0
 13 44  1  0  0  0  0
 15 45  1  0  0  0  0
 16 46  1  0  0  0  0
 19 47  1  0  0  0  0
 20 48  1  0  0  0  0
 22 49  1  0  0  0  0
 29 50  1  0  0  0  0
 30 51  1  0  0  0  0
 31 52  1  0  0  0  0
 32 53  1  0  0  0  0
M  END
