
  xtb     03022213273D
 energy: -74.812124905602 gnorm: 0.000751308214 xtb: 6.4.1 (afa7bdf)
 42 46  0     0  0            999 V2000
   -2.7755    0.7010   -2.5618 O   0  0  0  0  0  0  0  0  0  0  0  0
   -3.4125    0.4732   -1.5637 C   0  0  0  0  0  0  0  0  0  0  0  0
   -4.7734    0.5369   -1.6600 O   0  0  0  0  0  0  0  0  0  0  0  0
   -5.5990    0.3197   -0.6116 C   0  0  0  0  0  0  0  0  0  0  0  0
   -6.9722    0.4065   -0.8280 C   0  0  0  0  0  0  0  0  0  0  0  0
   -7.8386    0.1904    0.2227 C   0  0  0  0  0  0  0  0  0  0  0  0
   -7.3520   -0.1139    1.4922 C   0  0  0  0  0  0  0  0  0  0  0  0
   -5.9969   -0.2029    1.7109 C   0  0  0  0  0  0  0  0  0  0  0  0
   -5.0954    0.0131    0.6619 C   0  0  0  0  0  0  0  0  0  0  0  0
   -3.6770   -0.0668    0.8066 C   0  0  0  0  0  0  0  0  0  0  0  0
   -2.8493    0.1474   -0.2462 C   0  0  0  0  0  0  0  0  0  0  0  0
   -1.3910    0.0771   -0.1127 C   0  0  0  0  0  0  0  0  0  0  0  0
   -0.7681    0.5791    1.0303 C   0  0  0  0  0  0  0  0  0  0  0  0
    0.6006    0.5074    1.1821 C   0  0  0  0  0  0  0  0  0  0  0  0
    1.3909   -0.0703    0.1897 C   0  0  0  0  0  0  0  0  0  0  0  0
    2.8491   -0.1421    0.3242 C   0  0  0  0  0  0  0  0  0  0  0  0
    3.6780    0.0702   -0.7281 C   0  0  0  0  0  0  0  0  0  0  0  0
    5.0961   -0.0136   -0.5825 C   0  0  0  0  0  0  0  0  0  0  0  0
    5.9988    0.1996   -1.6310 C   0  0  0  0  0  0  0  0  0  0  0  0
    7.3535    0.1060   -1.4116 C   0  0  0  0  0  0  0  0  0  0  0  0
    7.8385   -0.2000   -0.1419 C   0  0  0  0  0  0  0  0  0  0  0  0
    6.9709   -0.4133    0.9083 C   0  0  0  0  0  0  0  0  0  0  0  0
    5.5980   -0.3220    0.6913 C   0  0  0  0  0  0  0  0  0  0  0  0
    4.7713   -0.5365    1.7392 O   0  0  0  0  0  0  0  0  0  0  0  0
    3.4106   -0.4688    1.6422 C   0  0  0  0  0  0  0  0  0  0  0  0
    2.7724   -0.6948    2.6399 O   0  0  0  0  0  0  0  0  0  0  0  0
    0.7681   -0.5720   -0.9534 C   0  0  0  0  0  0  0  0  0  0  0  0
   -0.6006   -0.5001   -1.1053 C   0  0  0  0  0  0  0  0  0  0  0  0
   -7.3291    0.6427   -1.8176 H   0  0  0  0  0  0  0  0  0  0  0  0
   -8.9032    0.2575    0.0588 H   0  0  0  0  0  0  0  0  0  0  0  0
   -8.0427   -0.2806    2.3045 H   0  0  0  0  0  0  0  0  0  0  0  0
   -5.6086   -0.4392    2.6904 H   0  0  0  0  0  0  0  0  0  0  0  0
   -3.2737   -0.3256    1.7756 H   0  0  0  0  0  0  0  0  0  0  0  0
   -1.3625    1.0553    1.7967 H   0  0  0  0  0  0  0  0  0  0  0  0
    1.0636    0.9084    2.0695 H   0  0  0  0  0  0  0  0  0  0  0  0
    3.2760    0.3300   -1.6973 H   0  0  0  0  0  0  0  0  0  0  0  0
    5.6118    0.4371   -2.6107 H   0  0  0  0  0  0  0  0  0  0  0  0
    8.0451    0.2704   -2.2236 H   0  0  0  0  0  0  0  0  0  0  0  0
    8.9027   -0.2708    0.0224 H   0  0  0  0  0  0  0  0  0  0  0  0
    7.3265   -0.6509    1.8980 H   0  0  0  0  0  0  0  0  0  0  0  0
    1.3625   -1.0461   -1.7201 H   0  0  0  0  0  0  0  0  0  0  0  0
   -1.0633   -0.8987   -1.9929 H   0  0  0  0  0  0  0  0  0  0  0  0
  1  2  2  0  0  0  0
  2  3  1  0  0  0  0
  3  4  1  0  0  0  0
  4  5  2  0  0  0  0
  5  6  1  0  0  0  0
  6  7  2  0  0  0  0
  7  8  1  0  0  0  0
  8  9  2  0  0  0  0
  9 10  1  0  0  0  0
 10 11  2  0  0  0  0
 11 12  1  0  0  0  0
 12 13  2  0  0  0  0
 13 14  1  0  0  0  0
 14 15  2  0  0  0  0
 15 16  1  0  0  0  0
 16 17  2  0  0  0  0
 17 18  1  0  0  0  0
 18 19  2  0  0  0  0
 19 20  1  0  0  0  0
 20 21  2  0  0  0  0
 21 22  1  0  0  0  0
 22 23  2  0  0  0  0
 23 24  1  0  0  0  0
 24 25  1  0  0  0  0
 25 26  2  0  0  0  0
 15 27  1  0  0  0  0
 27 28  2  0  0  0  0
 11  2  1  0  0  0  0
 28 12  1  0  0  0  0
  9  4  1  0  0  0  0
 25 16  1  0  0  0  0
 23 18  1  0  0  0  0
  5 29  1  0  0  0  0
  6 30  1  0  0  0  0
  7 31  1  0  0  0  0
  8 32  1  0  0  0  0
 10 33  1  0  0  0  0
 13 34  1  0  0  0  0
 14 35  1  0  0  0  0
 17 36  1  0  0  0  0
 19 37  1  0  0  0  0
 20 38  1  0  0  0  0
 21 39  1  0  0  0  0
 22 40  1  0  0  0  0
 27 41  1  0  0  0  0
 28 42  1  0  0  0  0
M  END
