
  xtb     03022215183D
 energy: -73.082231901290 gnorm: 0.000120627464 xtb: 6.4.1 (afa7bdf)
 48 51  0     0  0            999 V2000
    7.3143   -0.6195   -0.1398 C   0  0  0  0  0  0  0  0  0  0  0  0
    6.2459   -1.5219    0.0116 O   0  0  0  0  0  0  0  0  0  0  0  0
    4.9732   -1.0461   -0.0785 C   0  0  0  0  0  0  0  0  0  0  0  0
    3.9581   -1.9933    0.0855 C   0  0  0  0  0  0  0  0  0  0  0  0
    2.6348   -1.6245    0.0170 C   0  0  0  0  0  0  0  0  0  0  0  0
    2.3015   -0.2921   -0.2193 C   0  0  0  0  0  0  0  0  0  0  0  0
    0.9700    0.0910   -0.2851 N   0  0  0  0  0  0  0  0  0  0  0  0
   -0.0202   -0.7537   -0.1530 N   0  0  0  0  0  0  0  0  0  0  0  0
   -1.1336   -0.0368   -0.2848 C   0  0  0  0  0  0  0  0  0  0  0  0
   -2.4732   -0.6342   -0.3465 C   0  0  0  0  0  0  0  0  0  0  0  0
   -3.3845   -0.1295   -0.9950 O   0  0  0  0  0  0  0  0  0  0  0  0
   -2.6622   -1.7880    0.3251 N   0  0  0  0  0  0  0  0  0  0  0  0
   -1.7124   -2.5302    1.1260 C   0  0  0  0  0  0  0  0  0  0  0  0
   -2.5799   -3.5430    1.8706 C   0  0  0  0  0  0  0  0  0  0  0  0
   -3.6906   -3.8323    0.8629 C   0  0  0  0  0  0  0  0  0  0  0  0
   -3.9493   -2.4595    0.2526 C   0  0  0  0  0  0  0  0  0  0  0  0
   -0.7322    1.3235   -0.4919 C   0  0  0  0  0  0  0  0  0  0  0  0
   -1.4551    2.4394   -0.6587 N   0  0  0  0  0  0  0  0  0  0  0  0
   -2.8553    2.5926   -0.3218 C   0  0  0  0  0  0  0  0  0  0  0  0
   -3.0412    4.1042   -0.1855 C   0  0  0  0  0  0  0  0  0  0  0  0
   -1.9524    4.6727   -1.0938 C   0  0  0  0  0  0  0  0  0  0  0  0
   -0.7942    3.7113   -0.8564 C   0  0  0  0  0  0  0  0  0  0  0  0
    0.6021    1.3550   -0.4827 N   0  0  0  0  0  0  0  0  0  0  0  0
    3.3029    0.6557   -0.3845 C   0  0  0  0  0  0  0  0  0  0  0  0
    4.6322    0.2824   -0.3150 C   0  0  0  0  0  0  0  0  0  0  0  0
    7.2961    0.1586    0.6301 H   0  0  0  0  0  0  0  0  0  0  0  0
    7.3093   -0.1520   -1.1298 H   0  0  0  0  0  0  0  0  0  0  0  0
    8.2197   -1.2140   -0.0281 H   0  0  0  0  0  0  0  0  0  0  0  0
    4.2409   -3.0179    0.2670 H   0  0  0  0  0  0  0  0  0  0  0  0
    1.8465   -2.3487    0.1423 H   0  0  0  0  0  0  0  0  0  0  0  0
   -1.1610   -1.8659    1.7941 H   0  0  0  0  0  0  0  0  0  0  0  0
   -0.9881   -3.0351    0.4775 H   0  0  0  0  0  0  0  0  0  0  0  0
   -2.0221   -4.4322    2.1565 H   0  0  0  0  0  0  0  0  0  0  0  0
   -3.0004   -3.0889    2.7689 H   0  0  0  0  0  0  0  0  0  0  0  0
   -3.3300   -4.5220    0.0991 H   0  0  0  0  0  0  0  0  0  0  0  0
   -4.5816   -4.2542    1.3230 H   0  0  0  0  0  0  0  0  0  0  0  0
   -4.2913   -2.4950   -0.7842 H   0  0  0  0  0  0  0  0  0  0  0  0
   -4.6908   -1.8945    0.8302 H   0  0  0  0  0  0  0  0  0  0  0  0
   -3.0938    2.0593    0.6036 H   0  0  0  0  0  0  0  0  0  0  0  0
   -3.4811    2.1706   -1.1146 H   0  0  0  0  0  0  0  0  0  0  0  0
   -2.8627    4.4146    0.8454 H   0  0  0  0  0  0  0  0  0  0  0  0
   -4.0407    4.4209   -0.4752 H   0  0  0  0  0  0  0  0  0  0  0  0
   -1.6952    5.7023   -0.8536 H   0  0  0  0  0  0  0  0  0  0  0  0
   -2.2713    4.6212   -2.1350 H   0  0  0  0  0  0  0  0  0  0  0  0
   -0.1010    3.6428   -1.6976 H   0  0  0  0  0  0  0  0  0  0  0  0
   -0.2162    3.9894    0.0359 H   0  0  0  0  0  0  0  0  0  0  0  0
    3.0244    1.6809   -0.5670 H   0  0  0  0  0  0  0  0  0  0  0  0
    5.3915    1.0365   -0.4471 H   0  0  0  0  0  0  0  0  0  0  0  0
  1  2  1  0  0  0  0
  2  3  1  0  0  0  0
  3  4  2  0  0  0  0
  4  5  1  0  0  0  0
  5  6  2  0  0  0  0
  6  7  1  0  0  0  0
  7  8  1  0  0  0  0
  8  9  2  0  0  0  0
  9 10  1  0  0  0  0
 10 11  2  0  0  0  0
 10 12  1  0  0  0  0
 12 13  1  0  0  0  0
 13 14  1  0  0  0  0
 14 15  1  0  0  0  0
 15 16  1  0  0  0  0
  9 17  1  0  0  0  0
 17 18  1  0  0  0  0
 18 19  1  0  0  0  0
 19 20  1  0  0  0  0
 20 21  1  0  0  0  0
 21 22  1  0  0  0  0
 17 23  2  0  0  0  0
  6 24  1  0  0  0  0
 24 25  2  0  0  0  0
 25  3  1  0  0  0  0
 23  7  1  0  0  0  0
 16 12  1  0  0  0  0
 22 18  1  0  0  0  0
  1 26  1  0  0  0  0
  1 27  1  0  0  0  0
  1 28  1  0  0  0  0
  4 29  1  0  0  0  0
  5 30  1  0  0  0  0
 13 31  1  0  0  0  0
 13 32  1  0  0  0  0
 14 33  1  0  0  0  0
 14 34  1  0  0  0  0
 15 35  1  0  0  0  0
 15 36  1  0  0  0  0
 16 37  1  0  0  0  0
 16 38  1  0  0  0  0
 19 39  1  0  0  0  0
 19 40  1  0  0  0  0
 20 41  1  0  0  0  0
 20 42  1  0  0  0  0
 21 43  1  0  0  0  0
 21 44  1  0  0  0  0
 22 45  1  0  0  0  0
 22 46  1  0  0  0  0
 24 47  1  0  0  0  0
 25 48  1  0  0  0  0
M  END
