
  xtb     03022215583D
 energy: -104.647407309279 gnorm: 0.000256885509 xtb: 6.4.1 (afa7bdf)
 61 65  0     0  0            999 V2000
    2.6251    2.6064    2.0272 C   0  0  0  0  0  0  0  0  0  0  0  0
    1.1109    2.6892    1.9352 C   0  0  0  0  0  0  0  0  0  0  0  0
    0.5951    1.4253    1.5175 O   0  0  0  0  0  0  0  0  0  0  0  0
   -0.4480    1.4231    0.6806 C   0  0  0  0  0  0  0  0  0  0  0  0
   -0.9827    2.4183    0.2566 O   0  0  0  0  0  0  0  0  0  0  0  0
   -0.8295    0.0456    0.3304 C   0  0  0  0  0  0  0  0  0  0  0  0
    0.0185   -1.0321   -0.0248 C   0  0  0  0  0  0  0  0  0  0  0  0
    1.4652   -1.0082   -0.1439 C   0  0  0  0  0  0  0  0  0  0  0  0
    2.1181    0.0545   -0.6786 C   0  0  0  0  0  0  0  0  0  0  0  0
    3.5407    0.0887   -0.7493 C   0  0  0  0  0  0  0  0  0  0  0  0
    4.2145   -1.0350   -0.2743 C   0  0  0  0  0  0  0  0  0  0  0  0
    5.6207   -1.1148   -0.3071 C   0  0  0  0  0  0  0  0  0  0  0  0
    6.3449   -0.0721   -0.7991 C   0  0  0  0  0  0  0  0  0  0  0  0
    5.7122    1.0997   -1.2798 C   0  0  0  0  0  0  0  0  0  0  0  0
    6.4692    2.1803   -1.7720 C   0  0  0  0  0  0  0  0  0  0  0  0
    5.8580    3.3159   -2.2292 C   0  0  0  0  0  0  0  0  0  0  0  0
    4.4621    3.4093   -2.2124 C   0  0  0  0  0  0  0  0  0  0  0  0
    3.6993    2.3721   -1.7424 C   0  0  0  0  0  0  0  0  0  0  0  0
    4.2962    1.1911   -1.2634 C   0  0  0  0  0  0  0  0  0  0  0  0
    3.5670   -2.0993    0.2404 O   0  0  0  0  0  0  0  0  0  0  0  0
    2.2038   -2.1656    0.3633 C   0  0  0  0  0  0  0  0  0  0  0  0
    1.7316   -3.1412    0.8831 O   0  0  0  0  0  0  0  0  0  0  0  0
   -0.7050   -2.1106   -0.2596 N   0  0  0  0  0  0  0  0  0  0  0  0
   -1.9776   -1.7900   -0.0879 N   0  0  0  0  0  0  0  0  0  0  0  0
   -2.9260   -2.8277   -0.1926 C   0  0  0  0  0  0  0  0  0  0  0  0
   -2.5217   -4.1001    0.2010 C   0  0  0  0  0  0  0  0  0  0  0  0
   -3.4128   -5.1506    0.0985 C   0  0  0  0  0  0  0  0  0  0  0  0
   -4.6916   -4.9385   -0.3882 C   0  0  0  0  0  0  0  0  0  0  0  0
   -5.0950   -3.6722   -0.7948 C   0  0  0  0  0  0  0  0  0  0  0  0
   -6.4665   -3.4471   -1.3530 C   0  0  0  0  0  0  0  0  0  0  0  0
   -4.1978   -2.6161   -0.7039 C   0  0  0  0  0  0  0  0  0  0  0  0
   -2.1165   -0.4859    0.2748 C   0  0  0  0  0  0  0  0  0  0  0  0
   -3.3443    0.2565    0.6344 C   0  0  0  0  0  0  0  0  0  0  0  0
   -4.4019    0.2129    0.0581 O   0  0  0  0  0  0  0  0  0  0  0  0
   -3.0945    1.0154    1.6991 O   0  0  0  0  0  0  0  0  0  0  0  0
   -4.1120    1.9397    2.0937 C   0  0  0  0  0  0  0  0  0  0  0  0
   -4.1387    3.1500    1.1719 C   0  0  0  0  0  0  0  0  0  0  0  0
    3.0617    2.4235    1.0486 H   0  0  0  0  0  0  0  0  0  0  0  0
    2.9121    1.7962    2.6921 H   0  0  0  0  0  0  0  0  0  0  0  0
    3.0158    3.5418    2.4174 H   0  0  0  0  0  0  0  0  0  0  0  0
    0.6757    2.9206    2.9136 H   0  0  0  0  0  0  0  0  0  0  0  0
    0.7930    3.4551    1.2193 H   0  0  0  0  0  0  0  0  0  0  0  0
    1.5411    0.8799   -1.0674 H   0  0  0  0  0  0  0  0  0  0  0  0
    6.0871   -2.0120    0.0669 H   0  0  0  0  0  0  0  0  0  0  0  0
    7.4233   -0.1229   -0.8264 H   0  0  0  0  0  0  0  0  0  0  0  0
    7.5460    2.0948   -1.7793 H   0  0  0  0  0  0  0  0  0  0  0  0
    6.4446    4.1413   -2.6035 H   0  0  0  0  0  0  0  0  0  0  0  0
    3.9841    4.3075   -2.5739 H   0  0  0  0  0  0  0  0  0  0  0  0
    2.6252    2.4722   -1.7437 H   0  0  0  0  0  0  0  0  0  0  0  0
   -1.5198   -4.2407    0.5743 H   0  0  0  0  0  0  0  0  0  0  0  0
   -3.1097   -6.1400    0.4057 H   0  0  0  0  0  0  0  0  0  0  0  0
   -5.3843   -5.7647   -0.4585 H   0  0  0  0  0  0  0  0  0  0  0  0
   -6.4851   -3.7099   -2.4111 H   0  0  0  0  0  0  0  0  0  0  0  0
   -7.1990   -4.0674   -0.8412 H   0  0  0  0  0  0  0  0  0  0  0  0
   -6.7536   -2.4034   -1.2570 H   0  0  0  0  0  0  0  0  0  0  0  0
   -4.4959   -1.6325   -1.0273 H   0  0  0  0  0  0  0  0  0  0  0  0
   -3.8437    2.2219    3.1136 H   0  0  0  0  0  0  0  0  0  0  0  0
   -5.0799    1.4271    2.0901 H   0  0  0  0  0  0  0  0  0  0  0  0
   -3.1308    3.5387    1.0491 H   0  0  0  0  0  0  0  0  0  0  0  0
   -4.7782    3.9199    1.5938 H   0  0  0  0  0  0  0  0  0  0  0  0
   -4.5201    2.8662    0.1945 H   0  0  0  0  0  0  0  0  0  0  0  0
  1  2  1  0  0  0  0
  2  3  1  0  0  0  0
  3  4  1  0  0  0  0
  4  5  2  0  0  0  0
  4  6  1  0  0  0  0
  6  7  1  0  0  0  0
  7  8  1  0  0  0  0
  8  9  2  0  0  0  0
  9 10  1  0  0  0  0
 10 11  2  0  0  0  0
 11 12  1  0  0  0  0
 12 13  2  0  0  0  0
 13 14  1  0  0  0  0
 14 15  2  0  0  0  0
 15 16  1  0  0  0  0
 16 17  2  0  0  0  0
 17 18  1  0  0  0  0
 18 19  2  0  0  0  0
 11 20  1  0  0  0  0
 20 21  1  0  0  0  0
 21 22  2  0  0  0  0
  7 23  2  0  0  0  0
 23 24  1  0  0  0  0
 24 25  1  0  0  0  0
 25 26  2  0  0  0  0
 26 27  1  0  0  0  0
 27 28  2  0  0  0  0
 28 29  1  0  0  0  0
 29 30  1  0  0  0  0
 29 31  2  0  0  0  0
 24 32  1  0  0  0  0
 32 33  1  0  0  0  0
 33 34  2  0  0  0  0
 33 35  1  0  0  0  0
 35 36  1  0  0  0  0
 36 37  1  0  0  0  0
 32  6  2  0  0  0  0
 21  8  1  0  0  0  0
 31 25  1  0  0  0  0
 19 10  1  0  0  0  0
 19 14  1  0  0  0  0
  1 38  1  0  0  0  0
  1 39  1  0  0  0  0
  1 40  1  0  0  0  0
  2 41  1  0  0  0  0
  2 42  1  0  0  0  0
  9 43  1  0  0  0  0
 12 44  1  0  0  0  0
 13 45  1  0  0  0  0
 15 46  1  0  0  0  0
 16 47  1  0  0  0  0
 17 48  1  0  0  0  0
 18 49  1  0  0  0  0
 26 50  1  0  0  0  0
 27 51  1  0  0  0  0
 28 52  1  0  0  0  0
 30 53  1  0  0  0  0
 30 54  1  0  0  0  0
 30 55  1  0  0  0  0
 31 56  1  0  0  0  0
 36 57  1  0  0  0  0
 36 58  1  0  0  0  0
 37 59  1  0  0  0  0
 37 60  1  0  0  0  0
 37 61  1  0  0  0  0
M  END
