
  xtb     03022212523D
 energy: -145.937836437306 gnorm: 0.000182923885 xtb: 6.4.1 (afa7bdf)
 84 92  0     0  0            999 V2000
   -1.3049    2.7633   -1.0793 C   0  0  0  0  0  0  0  0  0  0  0  0
   -1.9449    1.4721   -0.6813 C   0  0  0  0  0  0  0  0  0  0  0  0
   -1.2182    0.3523   -0.3789 C   0  0  0  0  0  0  0  0  0  0  0  0
    0.2232    0.2194   -0.2620 C   0  0  0  0  0  0  0  0  0  0  0  0
    0.8606   -0.9288   -0.7432 C   0  0  0  0  0  0  0  0  0  0  0  0
    2.2247   -1.0678   -0.6477 C   0  0  0  0  0  0  0  0  0  0  0  0
    3.0031   -0.0707   -0.0508 C   0  0  0  0  0  0  0  0  0  0  0  0
    4.4319   -0.2581    0.0215 C   0  0  0  0  0  0  0  0  0  0  0  0
    5.0641   -1.3428   -0.3716 N   0  0  0  0  0  0  0  0  0  0  0  0
    6.3860   -1.1414   -0.1476 C   0  0  0  0  0  0  0  0  0  0  0  0
    7.3491   -2.1985   -0.4228 C   0  0  0  0  0  0  0  0  0  0  0  0
    8.5067   -2.3516    0.3377 C   0  0  0  0  0  0  0  0  0  0  0  0
    9.3921   -3.3752    0.0581 C   0  0  0  0  0  0  0  0  0  0  0  0
    9.1333   -4.2616   -0.9748 C   0  0  0  0  0  0  0  0  0  0  0  0
    7.9744   -4.1275   -1.7220 C   0  0  0  0  0  0  0  0  0  0  0  0
    7.0858   -3.1062   -1.4470 C   0  0  0  0  0  0  0  0  0  0  0  0
    6.5769    0.1276    0.3935 C   0  0  0  0  0  0  0  0  0  0  0  0
    7.7621    0.8887    0.7438 C   0  0  0  0  0  0  0  0  0  0  0  0
    8.9289    0.7763   -0.0137 C   0  0  0  0  0  0  0  0  0  0  0  0
   10.0456    1.5207    0.3107 C   0  0  0  0  0  0  0  0  0  0  0  0
   10.0182    2.3913    1.3891 C   0  0  0  0  0  0  0  0  0  0  0  0
    8.8635    2.5144    2.1432 C   0  0  0  0  0  0  0  0  0  0  0  0
    7.7421    1.7723    1.8236 C   0  0  0  0  0  0  0  0  0  0  0  0
    5.3198    0.6585    0.5043 N   0  0  0  0  0  0  0  0  0  0  0  0
    2.3642    1.0600    0.4624 C   0  0  0  0  0  0  0  0  0  0  0  0
    0.9970    1.2026    0.3585 C   0  0  0  0  0  0  0  0  0  0  0  0
   -2.1745   -1.0768   -0.0830 S   0  0  0  0  0  0  0  0  0  0  0  0
   -3.7089   -0.2203   -0.6242 C   0  0  0  0  0  0  0  0  0  0  0  0
   -3.9443   -0.6164   -2.0903 C   0  0  0  0  0  0  0  0  0  0  0  0
   -3.3562    1.2550   -0.6416 C   0  0  0  0  0  0  0  0  0  0  0  0
   -4.4092    2.1219   -0.6610 C   0  0  0  0  0  0  0  0  0  0  0  0
   -5.7761    1.6597   -0.5065 C   0  0  0  0  0  0  0  0  0  0  0  0
   -6.0594    0.3922   -0.1310 C   0  0  0  0  0  0  0  0  0  0  0  0
   -7.2774   -0.3633    0.0189 C   0  0  0  0  0  0  0  0  0  0  0  0
   -8.6130    0.0139   -0.0910 C   0  0  0  0  0  0  0  0  0  0  0  0
   -9.5968   -0.9359    0.1184 C   0  0  0  0  0  0  0  0  0  0  0  0
   -9.2691   -2.2475    0.4268 C   0  0  0  0  0  0  0  0  0  0  0  0
   -7.9406   -2.6411    0.5056 C   0  0  0  0  0  0  0  0  0  0  0  0
   -6.9521   -1.7046    0.2930 C   0  0  0  0  0  0  0  0  0  0  0  0
   -5.4672   -1.9350    0.2377 C   0  0  0  0  0  0  0  0  0  0  0  0
   -4.9407   -2.9138    1.2827 C   0  0  0  0  0  0  0  0  0  0  0  0
   -4.8945   -0.4969    0.2972 C   0  0  0  0  0  0  0  0  0  0  0  0
   -4.5681   -0.0914    1.7448 C   0  0  0  0  0  0  0  0  0  0  0  0
   -6.7254    2.7884   -0.7755 C   0  0  0  0  0  0  0  0  0  0  0  0
   -7.2941    2.7160   -2.0115 F   0  0  0  0  0  0  0  0  0  0  0  0
   -7.7602    2.8770    0.0938 F   0  0  0  0  0  0  0  0  0  0  0  0
   -5.8523    4.0671   -0.6602 C   0  0  0  0  0  0  0  0  0  0  0  0
   -5.9651    4.5613    0.5942 F   0  0  0  0  0  0  0  0  0  0  0  0
   -6.2308    5.0452   -1.4996 F   0  0  0  0  0  0  0  0  0  0  0  0
   -4.3912    3.6005   -0.8955 C   0  0  0  0  0  0  0  0  0  0  0  0
   -3.5524    4.2943   -0.0850 F   0  0  0  0  0  0  0  0  0  0  0  0
   -4.0176    3.9289   -2.1666 F   0  0  0  0  0  0  0  0  0  0  0  0
   -0.2755    2.5911   -1.3845 H   0  0  0  0  0  0  0  0  0  0  0  0
   -1.8399    3.2052   -1.9152 H   0  0  0  0  0  0  0  0  0  0  0  0
   -1.3109    3.4788   -0.2585 H   0  0  0  0  0  0  0  0  0  0  0  0
    0.2680   -1.7037   -1.2065 H   0  0  0  0  0  0  0  0  0  0  0  0
    2.7253   -1.9447   -1.0250 H   0  0  0  0  0  0  0  0  0  0  0  0
    8.7051   -1.6750    1.1561 H   0  0  0  0  0  0  0  0  0  0  0  0
   10.2873   -3.4857    0.6529 H   0  0  0  0  0  0  0  0  0  0  0  0
    9.8295   -5.0587   -1.1910 H   0  0  0  0  0  0  0  0  0  0  0  0
    7.7642   -4.8232   -2.5215 H   0  0  0  0  0  0  0  0  0  0  0  0
    6.1766   -2.9924   -2.0167 H   0  0  0  0  0  0  0  0  0  0  0  0
    8.9461    0.1072   -0.8607 H   0  0  0  0  0  0  0  0  0  0  0  0
   10.9422    1.4257   -0.2836 H   0  0  0  0  0  0  0  0  0  0  0  0
   10.8931    2.9719    1.6401 H   0  0  0  0  0  0  0  0  0  0  0  0
    8.8364    3.1901    2.9856 H   0  0  0  0  0  0  0  0  0  0  0  0
    6.8523    1.8597    2.4322 H   0  0  0  0  0  0  0  0  0  0  0  0
    5.1154    1.5886    0.8300 H   0  0  0  0  0  0  0  0  0  0  0  0
    2.9302    1.8350    0.9590 H   0  0  0  0  0  0  0  0  0  0  0  0
    0.5172    2.0650    0.7938 H   0  0  0  0  0  0  0  0  0  0  0  0
   -3.1333   -0.2276   -2.7034 H   0  0  0  0  0  0  0  0  0  0  0  0
   -3.9666   -1.6960   -2.2111 H   0  0  0  0  0  0  0  0  0  0  0  0
   -4.8808   -0.1951   -2.4480 H   0  0  0  0  0  0  0  0  0  0  0  0
   -8.8959    1.0233   -0.3305 H   0  0  0  0  0  0  0  0  0  0  0  0
  -10.6345   -0.6489    0.0413 H   0  0  0  0  0  0  0  0  0  0  0  0
  -10.0526   -2.9718    0.5925 H   0  0  0  0  0  0  0  0  0  0  0  0
   -7.6898   -3.6688    0.7201 H   0  0  0  0  0  0  0  0  0  0  0  0
   -5.2457   -2.3609   -0.7462 H   0  0  0  0  0  0  0  0  0  0  0  0
   -5.3032   -3.9141    1.0592 H   0  0  0  0  0  0  0  0  0  0  0  0
   -5.2729   -2.6465    2.2814 H   0  0  0  0  0  0  0  0  0  0  0  0
   -3.8538   -2.9385    1.2620 H   0  0  0  0  0  0  0  0  0  0  0  0
   -4.2870    0.9584    1.7854 H   0  0  0  0  0  0  0  0  0  0  0  0
   -3.7490   -0.6837    2.1410 H   0  0  0  0  0  0  0  0  0  0  0  0
   -5.4455   -0.2331    2.3704 H   0  0  0  0  0  0  0  0  0  0  0  0
  1  2  1  0  0  0  0
  2  3  2  0  0  0  0
  3  4  1  0  0  0  0
  4  5  2  0  0  0  0
  5  6  1  0  0  0  0
  6  7  2  0  0  0  0
  7  8  1  0  0  0  0
  8  9  2  0  0  0  0
  9 10  1  0  0  0  0
 10 11  1  0  0  0  0
 11 12  2  0  0  0  0
 12 13  1  0  0  0  0
 13 14  2  0  0  0  0
 14 15  1  0  0  0  0
 15 16  2  0  0  0  0
 10 17  2  0  0  0  0
 17 18  1  0  0  0  0
 18 19  2  0  0  0  0
 19 20  1  0  0  0  0
 20 21  2  0  0  0  0
 21 22  1  0  0  0  0
 22 23  2  0  0  0  0
 17 24  1  0  0  0  0
  7 25  1  0  0  0  0
 25 26  2  0  0  0  0
  3 27  1  0  0  0  0
 27 28  1  0  0  0  0
 28 29  1  0  0  0  0
 28 30  1  0  0  0  0
 30 31  2  0  0  0  0
 31 32  1  0  0  0  0
 32 33  2  0  0  0  0
 33 34  1  0  0  0  0
 34 35  2  0  0  0  0
 35 36  1  0  0  0  0
 36 37  2  0  0  0  0
 37 38  1  0  0  0  0
 38 39  2  0  0  0  0
 39 40  1  0  0  0  0
 40 41  1  0  0  0  0
 40 42  1  0  0  0  0
 42 43  1  0  0  0  0
 32 44  1  0  0  0  0
 44 45  1  0  0  0  0
 44 46  1  0  0  0  0
 44 47  1  0  0  0  0
 47 48  1  0  0  0  0
 47 49  1  0  0  0  0
 47 50  1  0  0  0  0
 50 51  1  0  0  0  0
 50 52  1  0  0  0  0
 30  2  1  0  0  0  0
 50 31  1  0  0  0  0
 26  4  1  0  0  0  0
 42 28  1  0  0  0  0
 24  8  1  0  0  0  0
 42 33  1  0  0  0  0
 16 11  1  0  0  0  0
 23 18  1  0  0  0  0
 39 34  1  0  0  0  0
  1 53  1  0  0  0  0
  1 54  1  0  0  0  0
  1 55  1  0  0  0  0
  5 56  1  0  0  0  0
  6 57  1  0  0  0  0
 12 58  1  0  0  0  0
 13 59  1  0  0  0  0
 14 60  1  0  0  0  0
 15 61  1  0  0  0  0
 16 62  1  0  0  0  0
 19 63  1  0  0  0  0
 20 64  1  0  0  0  0
 21 65  1  0  0  0  0
 22 66  1  0  0  0  0
 23 67  1  0  0  0  0
 24 68  1  0  0  0  0
 25 69  1  0  0  0  0
 26 70  1  0  0  0  0
 29 71  1  0  0  0  0
 29 72  1  0  0  0  0
 29 73  1  0  0  0  0
 35 74  1  0  0  0  0
 36 75  1  0  0  0  0
 37 76  1  0  0  0  0
 38 77  1  0  0  0  0
 40 78  1  0  0  0  0
 41 79  1  0  0  0  0
 41 80  1  0  0  0  0
 41 81  1  0  0  0  0
 43 82  1  0  0  0  0
 43 83  1  0  0  0  0
 43 84  1  0  0  0  0
M  END
