
  xtb     03022213303D
 energy: -107.750005739550 gnorm: 0.000275857778 xtb: 6.4.1 (afa7bdf)
 76 80  0     0  0            999 V2000
    2.9342   -5.4036   -1.1822 C   0  0  0  0  0  0  0  0  0  0  0  0
    1.7790   -5.8843   -0.3142 C   0  0  0  0  0  0  0  0  0  0  0  0
    1.8084   -5.2466    1.0832 C   0  0  0  0  0  0  0  0  0  0  0  0
    1.5956   -3.7734    1.0243 C   0  0  0  0  0  0  0  0  0  0  0  0
    2.5391   -2.7963    1.1006 C   0  0  0  0  0  0  0  0  0  0  0  0
    1.8496   -1.5435    0.9529 C   0  0  0  0  0  0  0  0  0  0  0  0
    0.5324   -1.7566    0.7899 N   0  0  0  0  0  0  0  0  0  0  0  0
    0.3250   -3.0878    0.8265 C   0  0  0  0  0  0  0  0  0  0  0  0
   -0.9117   -3.7369    0.7112 C   0  0  0  0  0  0  0  0  0  0  0  0
   -2.1870   -3.2476    0.5136 C   0  0  0  0  0  0  0  0  0  0  0  0
   -2.6336   -1.9294    0.3686 C   0  0  0  0  0  0  0  0  0  0  0  0
   -1.8412   -0.8318    0.4208 N   0  0  0  0  0  0  0  0  0  0  0  0
   -2.5801    0.2903    0.2621 C   0  0  0  0  0  0  0  0  0  0  0  0
   -3.9308   -0.1085    0.0927 C   0  0  0  0  0  0  0  0  0  0  0  0
   -3.9773   -1.4787    0.1602 C   0  0  0  0  0  0  0  0  0  0  0  0
   -5.1792   -2.3432   -0.0001 C   0  0  0  0  0  0  0  0  0  0  0  0
   -5.2616   -2.8851   -1.4400 C   0  0  0  0  0  0  0  0  0  0  0  0
   -6.4257   -3.6298   -1.7044 O   0  0  0  0  0  0  0  0  0  0  0  0
   -6.4505   -4.9073   -1.1206 C   0  0  0  0  0  0  0  0  0  0  0  0
   -2.0282    1.5808    0.2838 C   0  0  0  0  0  0  0  0  0  0  0  0
   -0.7140    1.7935    0.4559 N   0  0  0  0  0  0  0  0  0  0  0  0
   -0.5055    3.1260    0.4396 C   0  0  0  0  0  0  0  0  0  0  0  0
    0.7262    3.7763    0.5815 C   0  0  0  0  0  0  0  0  0  0  0  0
    2.0041    3.2848    0.7637 C   0  0  0  0  0  0  0  0  0  0  0  0
    2.4546    1.9657    0.8706 C   0  0  0  0  0  0  0  0  0  0  0  0
    1.6617    0.8684    0.8188 N   0  0  0  0  0  0  0  0  0  0  0  0
    2.4013   -0.2548    0.9662 C   0  0  0  0  0  0  0  0  0  0  0  0
    3.7555    0.1441    1.1215 C   0  0  0  0  0  0  0  0  0  0  0  0
    3.8021    1.5135    1.0644 C   0  0  0  0  0  0  0  0  0  0  0  0
    5.0155    2.3759    1.1382 C   0  0  0  0  0  0  0  0  0  0  0  0
    5.4574    2.8547   -0.2530 C   0  0  0  0  0  0  0  0  0  0  0  0
    5.9079    1.6987   -1.1359 C   0  0  0  0  0  0  0  0  0  0  0  0
   -1.7770    3.8116    0.2518 C   0  0  0  0  0  0  0  0  0  0  0  0
   -2.0142    5.2818    0.1822 C   0  0  0  0  0  0  0  0  0  0  0  0
   -1.4874    5.9161   -1.1246 C   0  0  0  0  0  0  0  0  0  0  0  0
   -0.1687    6.4062   -1.0424 O   0  0  0  0  0  0  0  0  0  0  0  0
   -0.0508    7.6564   -0.4140 C   0  0  0  0  0  0  0  0  0  0  0  0
   -2.7184    2.8340    0.1488 C   0  0  0  0  0  0  0  0  0  0  0  0
    2.8896   -4.3242   -1.3088 H   0  0  0  0  0  0  0  0  0  0  0  0
    2.8921   -5.8684   -2.1647 H   0  0  0  0  0  0  0  0  0  0  0  0
    3.8876   -5.6565   -0.7228 H   0  0  0  0  0  0  0  0  0  0  0  0
    0.8342   -5.6398   -0.8045 H   0  0  0  0  0  0  0  0  0  0  0  0
    1.8320   -6.9705   -0.2066 H   0  0  0  0  0  0  0  0  0  0  0  0
    2.7784   -5.4481    1.5437 H   0  0  0  0  0  0  0  0  0  0  0  0
    1.0380   -5.7099    1.7055 H   0  0  0  0  0  0  0  0  0  0  0  0
    3.5956   -2.9124    1.2463 H   0  0  0  0  0  0  0  0  0  0  0  0
   -0.8477   -4.8150    0.7952 H   0  0  0  0  0  0  0  0  0  0  0  0
   -2.9700   -3.9939    0.4649 H   0  0  0  0  0  0  0  0  0  0  0  0
   -0.8042   -0.9412    0.5711 H   0  0  0  0  0  0  0  0  0  0  0  0
   -4.7612    0.5539   -0.0549 H   0  0  0  0  0  0  0  0  0  0  0  0
   -5.1367   -3.1773    0.7035 H   0  0  0  0  0  0  0  0  0  0  0  0
   -6.0832   -1.7663    0.2023 H   0  0  0  0  0  0  0  0  0  0  0  0
   -4.3653   -3.4856   -1.6586 H   0  0  0  0  0  0  0  0  0  0  0  0
   -5.2953   -2.0443   -2.1378 H   0  0  0  0  0  0  0  0  0  0  0  0
   -7.3233   -5.4138   -1.5286 H   0  0  0  0  0  0  0  0  0  0  0  0
   -5.5478   -5.4768   -1.3760 H   0  0  0  0  0  0  0  0  0  0  0  0
   -6.5442   -4.8618   -0.0296 H   0  0  0  0  0  0  0  0  0  0  0  0
    0.6594    4.8534    0.5143 H   0  0  0  0  0  0  0  0  0  0  0  0
    2.7836    4.0322    0.8383 H   0  0  0  0  0  0  0  0  0  0  0  0
    0.6250    0.9768    0.6761 H   0  0  0  0  0  0  0  0  0  0  0  0
    4.5857   -0.5208    1.2607 H   0  0  0  0  0  0  0  0  0  0  0  0
    5.8304    1.8104    1.5950 H   0  0  0  0  0  0  0  0  0  0  0  0
    4.8119    3.2460    1.7672 H   0  0  0  0  0  0  0  0  0  0  0  0
    6.2798    3.5641   -0.1355 H   0  0  0  0  0  0  0  0  0  0  0  0
    4.6282    3.3760   -0.7353 H   0  0  0  0  0  0  0  0  0  0  0  0
    6.2203    2.0644   -2.1113 H   0  0  0  0  0  0  0  0  0  0  0  0
    5.0957    0.9896   -1.2779 H   0  0  0  0  0  0  0  0  0  0  0  0
    6.7462    1.1749   -0.6811 H   0  0  0  0  0  0  0  0  0  0  0  0
   -3.0896    5.4588    0.2468 H   0  0  0  0  0  0  0  0  0  0  0  0
   -1.5409    5.7780    1.0332 H   0  0  0  0  0  0  0  0  0  0  0  0
   -2.1598    6.7297   -1.4337 H   0  0  0  0  0  0  0  0  0  0  0  0
   -1.4675    5.1618   -1.9159 H   0  0  0  0  0  0  0  0  0  0  0  0
   -0.6467    8.4174   -0.9335 H   0  0  0  0  0  0  0  0  0  0  0  0
   -0.3640    7.6274    0.6368 H   0  0  0  0  0  0  0  0  0  0  0  0
    1.0022    7.9271   -0.4631 H   0  0  0  0  0  0  0  0  0  0  0  0
   -3.7751    2.9514    0.0056 H   0  0  0  0  0  0  0  0  0  0  0  0
  1  2  1  0  0  0  0
  2  3  1  0  0  0  0
  3  4  1  0  0  0  0
  4  5  2  0  0  0  0
  5  6  1  0  0  0  0
  6  7  2  0  0  0  0
  7  8  1  0  0  0  0
  8  9  2  0  0  0  0
  9 10  1  0  0  0  0
 10 11  2  0  0  0  0
 11 12  1  0  0  0  0
 12 13  1  0  0  0  0
 13 14  1  0  0  0  0
 14 15  2  0  0  0  0
 15 16  1  0  0  0  0
 16 17  1  0  0  0  0
 17 18  1  0  0  0  0
 18 19  1  0  0  0  0
 13 20  2  0  0  0  0
 20 21  1  0  0  0  0
 21 22  2  0  0  0  0
 22 23  1  0  0  0  0
 23 24  2  0  0  0  0
 24 25  1  0  0  0  0
 25 26  1  0  0  0  0
 26 27  1  0  0  0  0
 27 28  2  0  0  0  0
 28 29  1  0  0  0  0
 29 30  1  0  0  0  0
 30 31  1  0  0  0  0
 31 32  1  0  0  0  0
 22 33  1  0  0  0  0
 33 34  1  0  0  0  0
 34 35  1  0  0  0  0
 35 36  1  0  0  0  0
 36 37  1  0  0  0  0
 33 38  2  0  0  0  0
  8  4  1  0  0  0  0
 15 11  1  0  0  0  0
 38 20  1  0  0  0  0
 27  6  1  0  0  0  0
 29 25  2  0  0  0  0
  1 39  1  0  0  0  0
  1 40  1  0  0  0  0
  1 41  1  0  0  0  0
  2 42  1  0  0  0  0
  2 43  1  0  0  0  0
  3 44  1  0  0  0  0
  3 45  1  0  0  0  0
  5 46  1  0  0  0  0
  9 47  1  0  0  0  0
 10 48  1  0  0  0  0
 12 49  1  0  0  0  0
 14 50  1  0  0  0  0
 16 51  1  0  0  0  0
 16 52  1  0  0  0  0
 17 53  1  0  0  0  0
 17 54  1  0  0  0  0
 19 55  1  0  0  0  0
 19 56  1  0  0  0  0
 19 57  1  0  0  0  0
 23 58  1  0  0  0  0
 24 59  1  0  0  0  0
 26 60  1  0  0  0  0
 28 61  1  0  0  0  0
 30 62  1  0  0  0  0
 30 63  1  0  0  0  0
 31 64  1  0  0  0  0
 31 65  1  0  0  0  0
 32 66  1  0  0  0  0
 32 67  1  0  0  0  0
 32 68  1  0  0  0  0
 34 69  1  0  0  0  0
 34 70  1  0  0  0  0
 35 71  1  0  0  0  0
 35 72  1  0  0  0  0
 37 73  1  0  0  0  0
 37 74  1  0  0  0  0
 37 75  1  0  0  0  0
 38 76  1  0  0  0  0
M  END
