
  xtb     03022215143D
 energy: -114.121277892832 gnorm: 0.000111040034 xtb: 6.4.1 (afa7bdf)
 76 82  0     0  0            999 V2000
    2.5460   -4.9561   -2.3786 C   0  0  0  0  0  0  0  0  0  0  0  0
    1.8985   -3.6096   -2.6783 C   0  0  0  0  0  0  0  0  0  0  0  0
    2.1417   -2.6038   -1.5557 C   0  0  0  0  0  0  0  0  0  0  0  0
    1.5789   -1.2210   -1.9108 C   0  0  0  0  0  0  0  0  0  0  0  0
    1.6683   -0.2814   -0.8195 N   0  0  0  0  0  0  0  0  0  0  0  0
    2.8440    0.3851   -0.5565 C   0  0  0  0  0  0  0  0  0  0  0  0
    4.1336    0.1306   -1.0063 C   0  0  0  0  0  0  0  0  0  0  0  0
    5.1480    0.9662   -0.5880 C   0  0  0  0  0  0  0  0  0  0  0  0
    4.9147    2.0518    0.2676 C   0  0  0  0  0  0  0  0  0  0  0  0
    6.0312    2.9041    0.6991 C   0  0  0  0  0  0  0  0  0  0  0  0
    6.1039    3.3733    2.0102 C   0  0  0  0  0  0  0  0  0  0  0  0
    7.1524    4.1744    2.4219 C   0  0  0  0  0  0  0  0  0  0  0  0
    8.1553    4.5312    1.5363 C   0  0  0  0  0  0  0  0  0  0  0  0
    8.0741    4.0626    0.2382 C   0  0  0  0  0  0  0  0  0  0  0  0
    9.0424    4.4045   -0.6425 F   0  0  0  0  0  0  0  0  0  0  0  0
    7.0386    3.2596   -0.1947 C   0  0  0  0  0  0  0  0  0  0  0  0
    3.6212    2.3183    0.6954 C   0  0  0  0  0  0  0  0  0  0  0  0
    2.5877    1.4944    0.2774 C   0  0  0  0  0  0  0  0  0  0  0  0
    1.1702    1.5291    0.4765 C   0  0  0  0  0  0  0  0  0  0  0  0
    0.3798    2.5015    1.0908 C   0  0  0  0  0  0  0  0  0  0  0  0
   -0.9845    2.3903    1.0146 C   0  0  0  0  0  0  0  0  0  0  0  0
   -1.5349    1.2550    0.4190 C   0  0  0  0  0  0  0  0  0  0  0  0
   -2.9076    0.8821    0.2422 C   0  0  0  0  0  0  0  0  0  0  0  0
   -4.1066    1.5179    0.5251 C   0  0  0  0  0  0  0  0  0  0  0  0
   -5.3002    0.8736    0.2282 C   0  0  0  0  0  0  0  0  0  0  0  0
   -6.5872    1.5251    0.5104 C   0  0  0  0  0  0  0  0  0  0  0  0
   -6.7773    2.2509    1.6856 C   0  0  0  0  0  0  0  0  0  0  0  0
   -7.9870    2.8632    1.9552 C   0  0  0  0  0  0  0  0  0  0  0  0
   -9.0381    2.7703    1.0586 C   0  0  0  0  0  0  0  0  0  0  0  0
   -8.8398    2.0496   -0.1044 C   0  0  0  0  0  0  0  0  0  0  0  0
   -9.8540    1.9515   -0.9941 F   0  0  0  0  0  0  0  0  0  0  0  0
   -7.6423    1.4275   -0.3935 C   0  0  0  0  0  0  0  0  0  0  0  0
   -5.2726   -0.4072   -0.3412 C   0  0  0  0  0  0  0  0  0  0  0  0
   -4.0893   -1.0600   -0.6161 C   0  0  0  0  0  0  0  0  0  0  0  0
   -2.8979   -0.4061   -0.3306 C   0  0  0  0  0  0  0  0  0  0  0  0
   -1.5972   -0.8249   -0.5362 N   0  0  0  0  0  0  0  0  0  0  0  0
   -1.3096   -2.2406   -0.4959 C   0  0  0  0  0  0  0  0  0  0  0  0
   -1.6302   -2.8372    0.8833 C   0  0  0  0  0  0  0  0  0  0  0  0
   -1.6888   -4.3636    0.8733 C   0  0  0  0  0  0  0  0  0  0  0  0
   -0.3635   -5.0183    0.5024 C   0  0  0  0  0  0  0  0  0  0  0  0
   -0.7511    0.1980   -0.1081 C   0  0  0  0  0  0  0  0  0  0  0  0
    0.6322    0.3977   -0.1884 C   0  0  0  0  0  0  0  0  0  0  0  0
    2.1569   -5.3732   -1.4523 H   0  0  0  0  0  0  0  0  0  0  0  0
    2.3488   -5.6612   -3.1822 H   0  0  0  0  0  0  0  0  0  0  0  0
    3.6231   -4.8460   -2.2763 H   0  0  0  0  0  0  0  0  0  0  0  0
    2.3064   -3.2119   -3.6104 H   0  0  0  0  0  0  0  0  0  0  0  0
    0.8235   -3.7442   -2.8231 H   0  0  0  0  0  0  0  0  0  0  0  0
    3.2137   -2.5212   -1.3734 H   0  0  0  0  0  0  0  0  0  0  0  0
    1.6948   -2.9669   -0.6277 H   0  0  0  0  0  0  0  0  0  0  0  0
    2.1499   -0.8180   -2.7573 H   0  0  0  0  0  0  0  0  0  0  0  0
    0.5380   -1.2931   -2.2321 H   0  0  0  0  0  0  0  0  0  0  0  0
    4.3565   -0.6911   -1.6688 H   0  0  0  0  0  0  0  0  0  0  0  0
    6.1584    0.7653   -0.9116 H   0  0  0  0  0  0  0  0  0  0  0  0
    5.3384    3.0889    2.7164 H   0  0  0  0  0  0  0  0  0  0  0  0
    7.1942    4.5240    3.4426 H   0  0  0  0  0  0  0  0  0  0  0  0
    8.9819    5.1558    1.8345 H   0  0  0  0  0  0  0  0  0  0  0  0
    7.0113    2.9359   -1.2234 H   0  0  0  0  0  0  0  0  0  0  0  0
    3.4167    3.1727    1.3225 H   0  0  0  0  0  0  0  0  0  0  0  0
    0.8494    3.3440    1.5736 H   0  0  0  0  0  0  0  0  0  0  0  0
   -1.6344    3.1525    1.4148 H   0  0  0  0  0  0  0  0  0  0  0  0
   -4.1104    2.5125    0.9443 H   0  0  0  0  0  0  0  0  0  0  0  0
   -5.9725    2.3174    2.4021 H   0  0  0  0  0  0  0  0  0  0  0  0
   -8.1173    3.4168    2.8730 H   0  0  0  0  0  0  0  0  0  0  0  0
   -9.9897    3.2407    1.2471 H   0  0  0  0  0  0  0  0  0  0  0  0
   -7.5318    0.8922   -1.3236 H   0  0  0  0  0  0  0  0  0  0  0  0
   -6.2077   -0.9068   -0.5463 H   0  0  0  0  0  0  0  0  0  0  0  0
   -4.1041   -2.0500   -1.0461 H   0  0  0  0  0  0  0  0  0  0  0  0
   -1.9131   -2.7360   -1.2633 H   0  0  0  0  0  0  0  0  0  0  0  0
   -0.2622   -2.4040   -0.7162 H   0  0  0  0  0  0  0  0  0  0  0  0
   -2.5975   -2.4531    1.2155 H   0  0  0  0  0  0  0  0  0  0  0  0
   -0.8771   -2.4993    1.5994 H   0  0  0  0  0  0  0  0  0  0  0  0
   -1.9860   -4.7006    1.8686 H   0  0  0  0  0  0  0  0  0  0  0  0
   -2.4610   -4.6896    0.1725 H   0  0  0  0  0  0  0  0  0  0  0  0
   -0.1065   -4.8148   -0.5336 H   0  0  0  0  0  0  0  0  0  0  0  0
   -0.4295   -6.0967    0.6267 H   0  0  0  0  0  0  0  0  0  0  0  0
    0.4360   -4.6507    1.1427 H   0  0  0  0  0  0  0  0  0  0  0  0
  1  2  1  0  0  0  0
  2  3  1  0  0  0  0
  3  4  1  0  0  0  0
  4  5  1  0  0  0  0
  5  6  1  0  0  0  0
  6  7  2  0  0  0  0
  7  8  1  0  0  0  0
  8  9  2  0  0  0  0
  9 10  1  0  0  0  0
 10 11  2  0  0  0  0
 11 12  1  0  0  0  0
 12 13  2  0  0  0  0
 13 14  1  0  0  0  0
 14 15  1  0  0  0  0
 14 16  2  0  0  0  0
  9 17  1  0  0  0  0
 17 18  2  0  0  0  0
 18 19  1  0  0  0  0
 19 20  2  0  0  0  0
 20 21  1  0  0  0  0
 21 22  2  0  0  0  0
 22 23  1  0  0  0  0
 23 24  2  0  0  0  0
 24 25  1  0  0  0  0
 25 26  1  0  0  0  0
 26 27  2  0  0  0  0
 27 28  1  0  0  0  0
 28 29  2  0  0  0  0
 29 30  1  0  0  0  0
 30 31  1  0  0  0  0
 30 32  2  0  0  0  0
 25 33  2  0  0  0  0
 33 34  1  0  0  0  0
 34 35  2  0  0  0  0
 35 36  1  0  0  0  0
 36 37  1  0  0  0  0
 37 38  1  0  0  0  0
 38 39  1  0  0  0  0
 39 40  1  0  0  0  0
 36 41  1  0  0  0  0
 41 42  2  0  0  0  0
 42  5  1  0  0  0  0
 18  6  1  0  0  0  0
 42 19  1  0  0  0  0
 16 10  1  0  0  0  0
 41 22  1  0  0  0  0
 35 23  1  0  0  0  0
 32 26  1  0  0  0  0
  1 43  1  0  0  0  0
  1 44  1  0  0  0  0
  1 45  1  0  0  0  0
  2 46  1  0  0  0  0
  2 47  1  0  0  0  0
  3 48  1  0  0  0  0
  3 49  1  0  0  0  0
  4 50  1  0  0  0  0
  4 51  1  0  0  0  0
  7 52  1  0  0  0  0
  8 53  1  0  0  0  0
 11 54  1  0  0  0  0
 12 55  1  0  0  0  0
 13 56  1  0  0  0  0
 16 57  1  0  0  0  0
 17 58  1  0  0  0  0
 20 59  1  0  0  0  0
 21 60  1  0  0  0  0
 24 61  1  0  0  0  0
 27 62  1  0  0  0  0
 28 63  1  0  0  0  0
 29 64  1  0  0  0  0
 32 65  1  0  0  0  0
 33 66  1  0  0  0  0
 34 67  1  0  0  0  0
 37 68  1  0  0  0  0
 37 69  1  0  0  0  0
 38 70  1  0  0  0  0
 38 71  1  0  0  0  0
 39 72  1  0  0  0  0
 39 73  1  0  0  0  0
 40 74  1  0  0  0  0
 40 75  1  0  0  0  0
 40 76  1  0  0  0  0
M  END
