
  xtb     03022214303D
 energy: -99.914800300919 gnorm: 0.000149526476 xtb: 6.4.1 (afa7bdf)
 58 64  0     0  0            999 V2000
   -0.0950    1.8279    1.9372 F   0  0  0  0  0  0  0  0  0  0  0  0
   -0.0554    1.5177    0.5820 B   0  0  0  0  0  4  0  0  0  0  0  0
   -0.0698    2.6605   -0.1781 F   0  0  0  0  0  0  0  0  0  0  0  0
   -1.2740    0.6113    0.2580 N   0  0  0  0  0  0  0  0  0  0  0  0
   -2.5812    0.9023    0.1172 C   0  0  0  0  0  0  0  0  0  0  0  0
   -3.1720    2.2262    0.1352 C   0  0  0  0  0  0  0  0  0  0  0  0
   -4.2531    2.4817   -0.7164 C   0  0  0  0  0  0  0  0  0  0  0  0
   -4.8522    3.7246   -0.7348 C   0  0  0  0  0  0  0  0  0  0  0  0
   -4.3962    4.7299    0.1043 C   0  0  0  0  0  0  0  0  0  0  0  0
   -3.3376    4.4817    0.9622 C   0  0  0  0  0  0  0  0  0  0  0  0
   -2.7262    3.2427    0.9815 C   0  0  0  0  0  0  0  0  0  0  0  0
   -3.3029   -0.2957   -0.0778 C   0  0  0  0  0  0  0  0  0  0  0  0
   -2.4119   -1.3484   -0.0311 C   0  0  0  0  0  0  0  0  0  0  0  0
   -2.7235   -2.7580   -0.1463 C   0  0  0  0  0  0  0  0  0  0  0  0
   -1.8207   -3.7456    0.2616 C   0  0  0  0  0  0  0  0  0  0  0  0
   -2.1828   -5.0728    0.1236 C   0  0  0  0  0  0  0  0  0  0  0  0
   -3.4300   -5.3785   -0.4000 C   0  0  0  0  0  0  0  0  0  0  0  0
   -4.2630   -4.3256   -0.7563 C   0  0  0  0  0  0  0  0  0  0  0  0
   -3.9279   -3.0582   -0.6382 N   0  0  0  0  0  0  0  0  0  0  0  0
   -1.1202   -0.7557    0.1474 C   0  0  0  0  0  0  0  0  0  0  0  0
    0.0377   -1.3674    0.0837 N   0  0  0  0  0  0  0  0  0  0  0  0
    1.1550   -0.6819    0.1146 C   0  0  0  0  0  0  0  0  0  0  0  0
    2.4820   -1.1841   -0.0826 C   0  0  0  0  0  0  0  0  0  0  0  0
    2.8893   -2.5544   -0.3176 C   0  0  0  0  0  0  0  0  0  0  0  0
    1.9742   -3.5484   -0.6792 C   0  0  0  0  0  0  0  0  0  0  0  0
    2.4391   -4.8339   -0.8866 C   0  0  0  0  0  0  0  0  0  0  0  0
    3.7937   -5.0920   -0.7393 C   0  0  0  0  0  0  0  0  0  0  0  0
    4.6244   -4.0330   -0.3958 C   0  0  0  0  0  0  0  0  0  0  0  0
    4.1947   -2.8061   -0.1907 N   0  0  0  0  0  0  0  0  0  0  0  0
    3.3105   -0.0812   -0.0314 C   0  0  0  0  0  0  0  0  0  0  0  0
    2.5142    1.0595    0.2069 C   0  0  0  0  0  0  0  0  0  0  0  0
    3.0241    2.4136    0.3038 C   0  0  0  0  0  0  0  0  0  0  0  0
    2.5010    3.3596    1.1865 C   0  0  0  0  0  0  0  0  0  0  0  0
    3.0382    4.6315    1.2418 C   0  0  0  0  0  0  0  0  0  0  0  0
    4.0981    4.9833    0.4226 C   0  0  0  0  0  0  0  0  0  0  0  0
    4.6298    4.0491   -0.4531 C   0  0  0  0  0  0  0  0  0  0  0  0
    4.1055    2.7740   -0.5086 C   0  0  0  0  0  0  0  0  0  0  0  0
    1.2240    0.6843    0.2986 N   0  0  0  0  0  4  0  0  0  0  0  0
   -4.5977    1.7069   -1.3845 H   0  0  0  0  0  0  0  0  0  0  0  0
   -5.6772    3.9131   -1.4060 H   0  0  0  0  0  0  0  0  0  0  0  0
   -4.8670    5.7018    0.0894 H   0  0  0  0  0  0  0  0  0  0  0  0
   -2.9846    5.2595    1.6226 H   0  0  0  0  0  0  0  0  0  0  0  0
   -1.9193    3.0575    1.6677 H   0  0  0  0  0  0  0  0  0  0  0  0
   -4.3642   -0.3792   -0.1965 H   0  0  0  0  0  0  0  0  0  0  0  0
   -0.8715   -3.4586    0.6825 H   0  0  0  0  0  0  0  0  0  0  0  0
   -1.5053   -5.8586    0.4265 H   0  0  0  0  0  0  0  0  0  0  0  0
   -3.7508   -6.4011   -0.5241 H   0  0  0  0  0  0  0  0  0  0  0  0
   -5.2504   -4.5089   -1.1612 H   0  0  0  0  0  0  0  0  0  0  0  0
    0.9344   -3.2950   -0.8004 H   0  0  0  0  0  0  0  0  0  0  0  0
    1.7557   -5.6236   -1.1653 H   0  0  0  0  0  0  0  0  0  0  0  0
    4.1961   -6.0816   -0.8901 H   0  0  0  0  0  0  0  0  0  0  0  0
    5.6908   -4.1773   -0.2761 H   0  0  0  0  0  0  0  0  0  0  0  0
    4.3769   -0.0966   -0.1296 H   0  0  0  0  0  0  0  0  0  0  0  0
    1.6922    3.0941    1.8434 H   0  0  0  0  0  0  0  0  0  0  0  0
    2.6262    5.3536    1.9307 H   0  0  0  0  0  0  0  0  0  0  0  0
    4.5110    5.9803    0.4662 H   0  0  0  0  0  0  0  0  0  0  0  0
    5.4556    4.3182   -1.0952 H   0  0  0  0  0  0  0  0  0  0  0  0
    4.5095    2.0550   -1.2052 H   0  0  0  0  0  0  0  0  0  0  0  0
  1  2  1  0  0  0  0
  2  3  1  0  0  0  0
  2  4  1  0  0  0  0
  4  5  1  0  0  0  0
  5  6  1  0  0  0  0
  6  7  2  0  0  0  0
  7  8  1  0  0  0  0
  8  9  2  0  0  0  0
  9 10  1  0  0  0  0
 10 11  2  0  0  0  0
  5 12  2  0  0  0  0
 12 13  1  0  0  0  0
 13 14  1  0  0  0  0
 14 15  2  0  0  0  0
 15 16  1  0  0  0  0
 16 17  2  0  0  0  0
 17 18  1  0  0  0  0
 18 19  2  0  0  0  0
 13 20  2  0  0  0  0
 20 21  1  0  0  0  0
 21 22  2  0  0  0  0
 22 23  1  0  0  0  0
 23 24  1  0  0  0  0
 24 25  2  0  0  0  0
 25 26  1  0  0  0  0
 26 27  2  0  0  0  0
 27 28  1  0  0  0  0
 28 29  2  0  0  0  0
 23 30  2  0  0  0  0
 30 31  1  0  0  0  0
 31 32  1  0  0  0  0
 32 33  2  0  0  0  0
 33 34  1  0  0  0  0
 34 35  2  0  0  0  0
 35 36  1  0  0  0  0
 36 37  2  0  0  0  0
 31 38  2  0  0  0  0
 38  2  1  0  0  0  0
 20  4  1  0  0  0  0
 38 22  1  0  0  0  0
 11  6  1  0  0  0  0
 19 14  1  0  0  0  0
 29 24  1  0  0  0  0
 37 32  1  0  0  0  0
  7 39  1  0  0  0  0
  8 40  1  0  0  0  0
  9 41  1  0  0  0  0
 10 42  1  0  0  0  0
 11 43  1  0  0  0  0
 12 44  1  0  0  0  0
 15 45  1  0  0  0  0
 16 46  1  0  0  0  0
 17 47  1  0  0  0  0
 18 48  1  0  0  0  0
 25 49  1  0  0  0  0
 26 50  1  0  0  0  0
 27 51  1  0  0  0  0
 28 52  1  0  0  0  0
 30 53  1  0  0  0  0
 33 54  1  0  0  0  0
 34 55  1  0  0  0  0
 35 56  1  0  0  0  0
 36 57  1  0  0  0  0
 37 58  1  0  0  0  0
M  CHG  1   2  -1
M  CHG  1  38   1
M  END
