
  xtb     03022214243D
 energy: -77.140984340305 gnorm: 0.000258499267 xtb: 6.4.1 (afa7bdf)
 44 47  0     0  0            999 V2000
    3.1295    1.6939   -1.6907 N   0  0  0  0  0  0  0  0  0  0  0  0
    2.6783    1.1417   -0.7931 C   0  0  0  0  0  0  0  0  0  0  0  0
    2.0575    0.4681    0.2878 C   0  0  0  0  0  0  0  0  0  0  0  0
    2.6590    0.1155    1.4531 C   0  0  0  0  0  0  0  0  0  0  0  0
    4.0168    0.3075    1.8906 C   0  0  0  0  0  0  0  0  0  0  0  0
    5.0095    0.9363    1.1264 C   0  0  0  0  0  0  0  0  0  0  0  0
    6.2892    1.0809    1.6149 C   0  0  0  0  0  0  0  0  0  0  0  0
    6.6147    0.5995    2.8852 C   0  0  0  0  0  0  0  0  0  0  0  0
    7.9273    0.7472    3.3866 C   0  0  0  0  0  0  0  0  0  0  0  0
    8.9918    0.8632    3.7962 N   0  0  0  0  0  0  0  0  0  0  0  0
    5.6374   -0.0296    3.6606 C   0  0  0  0  0  0  0  0  0  0  0  0
    4.3615   -0.1700    3.1657 C   0  0  0  0  0  0  0  0  0  0  0  0
    0.6684    0.1836    0.0292 C   0  0  0  0  0  0  0  0  0  0  0  0
    0.0721    0.4541   -1.0813 N   0  0  0  0  0  0  0  0  0  0  0  0
   -1.2272    0.0914   -1.1004 C   0  0  0  0  0  0  0  0  0  0  0  0
   -1.9731    0.2802   -2.3424 C   0  0  0  0  0  0  0  0  0  0  0  0
   -2.9514   -0.6205   -2.7591 C   0  0  0  0  0  0  0  0  0  0  0  0
   -3.6189   -0.4254   -3.9521 C   0  0  0  0  0  0  0  0  0  0  0  0
   -3.3058    0.6724   -4.7397 C   0  0  0  0  0  0  0  0  0  0  0  0
   -4.1481    0.9206   -6.2274 Cl  0  0  0  0  0  0  0  0  0  0  0  0
   -2.3187    1.5655   -4.3521 C   0  0  0  0  0  0  0  0  0  0  0  0
   -1.6528    1.3631   -3.1596 C   0  0  0  0  0  0  0  0  0  0  0  0
   -1.6850   -0.4742    0.0786 C   0  0  0  0  0  0  0  0  0  0  0  0
   -3.0252   -0.8796    0.4620 C   0  0  0  0  0  0  0  0  0  0  0  0
   -4.1332   -0.1285    0.0647 C   0  0  0  0  0  0  0  0  0  0  0  0
   -5.4033   -0.5098    0.4491 C   0  0  0  0  0  0  0  0  0  0  0  0
   -5.5892   -1.6364    1.2351 C   0  0  0  0  0  0  0  0  0  0  0  0
   -4.4938   -2.3775    1.6465 C   0  0  0  0  0  0  0  0  0  0  0  0
   -3.2195   -2.0000    1.2691 C   0  0  0  0  0  0  0  0  0  0  0  0
   -0.3870   -0.5772    1.2219 S   0  0  0  0  0  0  0  0  0  0  0  0
    2.0240   -0.3928    2.1713 H   0  0  0  0  0  0  0  0  0  0  0  0
    4.7757    1.3127    0.1447 H   0  0  0  0  0  0  0  0  0  0  0  0
    7.0474    1.5665    1.0190 H   0  0  0  0  0  0  0  0  0  0  0  0
    5.8917   -0.4007    4.6424 H   0  0  0  0  0  0  0  0  0  0  0  0
    3.6086   -0.6570    3.7685 H   0  0  0  0  0  0  0  0  0  0  0  0
   -3.1834   -1.4849   -2.1556 H   0  0  0  0  0  0  0  0  0  0  0  0
   -4.3751   -1.1234   -4.2753 H   0  0  0  0  0  0  0  0  0  0  0  0
   -2.0740    2.4074   -4.9804 H   0  0  0  0  0  0  0  0  0  0  0  0
   -0.8735    2.0410   -2.8479 H   0  0  0  0  0  0  0  0  0  0  0  0
   -3.9887    0.7574   -0.5351 H   0  0  0  0  0  0  0  0  0  0  0  0
   -6.2532    0.0790    0.1382 H   0  0  0  0  0  0  0  0  0  0  0  0
   -6.5845   -1.9315    1.5311 H   0  0  0  0  0  0  0  0  0  0  0  0
   -4.6319   -3.2516    2.2651 H   0  0  0  0  0  0  0  0  0  0  0  0
   -2.3639   -2.5785    1.5883 H   0  0  0  0  0  0  0  0  0  0  0  0
  1  2  3  0  0  0  0
  2  3  1  0  0  0  0
  3  4  2  0  0  0  0
  4  5  1  0  0  0  0
  5  6  2  0  0  0  0
  6  7  1  0  0  0  0
  7  8  2  0  0  0  0
  8  9  1  0  0  0  0
  9 10  3  0  0  0  0
  8 11  1  0  0  0  0
 11 12  2  0  0  0  0
  3 13  1  0  0  0  0
 13 14  2  0  0  0  0
 14 15  1  0  0  0  0
 15 16  1  0  0  0  0
 16 17  2  0  0  0  0
 17 18  1  0  0  0  0
 18 19  2  0  0  0  0
 19 20  1  0  0  0  0
 19 21  1  0  0  0  0
 21 22  2  0  0  0  0
 15 23  2  0  0  0  0
 23 24  1  0  0  0  0
 24 25  2  0  0  0  0
 25 26  1  0  0  0  0
 26 27  2  0  0  0  0
 27 28  1  0  0  0  0
 28 29  2  0  0  0  0
 23 30  1  0  0  0  0
 12  5  1  0  0  0  0
 30 13  1  0  0  0  0
 22 16  1  0  0  0  0
 29 24  1  0  0  0  0
  4 31  1  0  0  0  0
  6 32  1  0  0  0  0
  7 33  1  0  0  0  0
 11 34  1  0  0  0  0
 12 35  1  0  0  0  0
 17 36  1  0  0  0  0
 18 37  1  0  0  0  0
 21 38  1  0  0  0  0
 22 39  1  0  0  0  0
 25 40  1  0  0  0  0
 26 41  1  0  0  0  0
 27 42  1  0  0  0  0
 28 43  1  0  0  0  0
 29 44  1  0  0  0  0
M  END
