
  xtb     03022214473D
 energy: -77.370013280749 gnorm: 0.000138079202 xtb: 6.4.1 (afa7bdf)
 49 53  0     0  0            999 V2000
   -1.1350    4.5051   -0.5459 C   0  0  0  0  0  0  0  0  0  0  0  0
   -0.1123    4.1604   -1.4140 C   0  0  0  0  0  0  0  0  0  0  0  0
    0.5356    2.9479   -1.2776 C   0  0  0  0  0  0  0  0  0  0  0  0
    0.1593    2.0622   -0.2717 C   0  0  0  0  0  0  0  0  0  0  0  0
    0.8329    0.7687   -0.1740 C   0  0  0  0  0  0  0  0  0  0  0  0
    2.1524    0.6749   -0.4265 N   0  0  0  0  0  0  0  0  0  0  0  0
    2.6330   -0.5068   -0.2793 C   0  0  0  0  0  0  0  0  0  0  0  0
    4.0183   -0.8797   -0.4477 C   0  0  0  0  0  0  0  0  0  0  0  0
    4.4537   -2.1889   -0.2150 C   0  0  0  0  0  0  0  0  0  0  0  0
    5.7916   -2.4835   -0.3922 C   0  0  0  0  0  0  0  0  0  0  0  0
    6.6528   -1.4741   -0.7969 C   0  0  0  0  0  0  0  0  0  0  0  0
    6.1209   -0.2080   -1.0039 C   0  0  0  0  0  0  0  0  0  0  0  0
    4.8496    0.0873   -0.8369 N   0  0  0  0  0  0  0  0  0  0  0  0
    1.4124   -1.7132    0.1748 S   0  0  0  0  0  0  0  0  0  0  0  0
    0.2285   -0.4332    0.1595 C   0  0  0  0  0  0  0  0  0  0  0  0
   -1.1100   -0.6888    0.3404 N   0  0  0  0  0  0  0  0  0  0  0  0
   -1.5151   -1.6318    1.2966 C   0  0  0  0  0  0  0  0  0  0  0  0
   -0.8311   -1.7365    2.5057 C   0  0  0  0  0  0  0  0  0  0  0  0
   -1.2201   -2.6742    3.4427 C   0  0  0  0  0  0  0  0  0  0  0  0
   -2.2956   -3.5098    3.1923 C   0  0  0  0  0  0  0  0  0  0  0  0
   -2.9795   -3.4052    1.9918 C   0  0  0  0  0  0  0  0  0  0  0  0
   -2.5935   -2.4772    1.0446 C   0  0  0  0  0  0  0  0  0  0  0  0
   -2.0512   -0.0460   -0.4818 C   0  0  0  0  0  0  0  0  0  0  0  0
   -3.2822    0.3423    0.0422 C   0  0  0  0  0  0  0  0  0  0  0  0
   -4.1934    1.0093   -0.7527 C   0  0  0  0  0  0  0  0  0  0  0  0
   -3.8900    1.3045   -2.0711 C   0  0  0  0  0  0  0  0  0  0  0  0
   -2.6698    0.9135   -2.5961 C   0  0  0  0  0  0  0  0  0  0  0  0
   -1.7554    0.2379   -1.8125 C   0  0  0  0  0  0  0  0  0  0  0  0
   -0.8472    2.4279    0.6185 C   0  0  0  0  0  0  0  0  0  0  0  0
   -1.4913    3.6418    0.4766 C   0  0  0  0  0  0  0  0  0  0  0  0
   -1.6470    5.4494   -0.6586 H   0  0  0  0  0  0  0  0  0  0  0  0
    0.1789    4.8394   -2.2020 H   0  0  0  0  0  0  0  0  0  0  0  0
    1.3364    2.6679   -1.9445 H   0  0  0  0  0  0  0  0  0  0  0  0
    3.7518   -2.9477    0.0976 H   0  0  0  0  0  0  0  0  0  0  0  0
    6.1583   -3.4852   -0.2189 H   0  0  0  0  0  0  0  0  0  0  0  0
    7.7039   -1.6637   -0.9482 H   0  0  0  0  0  0  0  0  0  0  0  0
    6.7482    0.6153   -1.3212 H   0  0  0  0  0  0  0  0  0  0  0  0
   -0.0007   -1.0762    2.7097 H   0  0  0  0  0  0  0  0  0  0  0  0
   -0.6841   -2.7457    4.3774 H   0  0  0  0  0  0  0  0  0  0  0  0
   -2.5993   -4.2387    3.9280 H   0  0  0  0  0  0  0  0  0  0  0  0
   -3.8153   -4.0575    1.7867 H   0  0  0  0  0  0  0  0  0  0  0  0
   -3.1184   -2.4041    0.1036 H   0  0  0  0  0  0  0  0  0  0  0  0
   -3.5144    0.1262    1.0747 H   0  0  0  0  0  0  0  0  0  0  0  0
   -5.1426    1.3104   -0.3348 H   0  0  0  0  0  0  0  0  0  0  0  0
   -4.6006    1.8351   -2.6861 H   0  0  0  0  0  0  0  0  0  0  0  0
   -2.4278    1.1319   -3.6253 H   0  0  0  0  0  0  0  0  0  0  0  0
   -0.8085   -0.0706   -2.2295 H   0  0  0  0  0  0  0  0  0  0  0  0
   -1.1128    1.7708    1.4335 H   0  0  0  0  0  0  0  0  0  0  0  0
   -2.2742    3.9163    1.1684 H   0  0  0  0  0  0  0  0  0  0  0  0
  1  2  2  0  0  0  0
  2  3  1  0  0  0  0
  3  4  2  0  0  0  0
  4  5  1  0  0  0  0
  5  6  1  0  0  0  0
  6  7  2  0  0  0  0
  7  8  1  0  0  0  0
  8  9  2  0  0  0  0
  9 10  1  0  0  0  0
 10 11  2  0  0  0  0
 11 12  1  0  0  0  0
 12 13  2  0  0  0  0
  7 14  1  0  0  0  0
 14 15  1  0  0  0  0
 15 16  1  0  0  0  0
 16 17  1  0  0  0  0
 17 18  2  0  0  0  0
 18 19  1  0  0  0  0
 19 20  2  0  0  0  0
 20 21  1  0  0  0  0
 21 22  2  0  0  0  0
 16 23  1  0  0  0  0
 23 24  2  0  0  0  0
 24 25  1  0  0  0  0
 25 26  2  0  0  0  0
 26 27  1  0  0  0  0
 27 28  2  0  0  0  0
  4 29  1  0  0  0  0
 29 30  2  0  0  0  0
 30  1  1  0  0  0  0
 15  5  2  0  0  0  0
 22 17  1  0  0  0  0
 28 23  1  0  0  0  0
 13  8  1  0  0  0  0
  1 31  1  0  0  0  0
  2 32  1  0  0  0  0
  3 33  1  0  0  0  0
  9 34  1  0  0  0  0
 10 35  1  0  0  0  0
 11 36  1  0  0  0  0
 12 37  1  0  0  0  0
 18 38  1  0  0  0  0
 19 39  1  0  0  0  0
 20 40  1  0  0  0  0
 21 41  1  0  0  0  0
 22 42  1  0  0  0  0
 24 43  1  0  0  0  0
 25 44  1  0  0  0  0
 26 45  1  0  0  0  0
 27 46  1  0  0  0  0
 28 47  1  0  0  0  0
 29 48  1  0  0  0  0
 30 49  1  0  0  0  0
M  END
