
  xtb     03022212003D
 energy: -46.051143570007 gnorm: 0.000103058491 xtb: 6.4.1 (afa7bdf)
 29 32  0     0  0            999 V2000
    4.1177    0.0430   -0.3915 C   0  0  0  0  0  0  0  0  0  0  0  0
    4.1939   -0.7755    0.6860 C   0  0  0  0  0  0  0  0  0  0  0  0
    2.6420   -1.1842    1.3079 S   0  0  0  0  0  0  0  0  0  0  0  0
    1.8680   -0.2415    0.0582 C   0  0  0  0  0  0  0  0  0  0  0  0
    0.4943   -0.1141    0.0065 N   0  0  0  0  0  0  0  0  0  0  0  0
   -0.1929    1.0804   -0.1425 C   0  0  0  0  0  0  0  0  0  0  0  0
    0.2947    2.3750   -0.2294 C   0  0  0  0  0  0  0  0  0  0  0  0
   -0.6219    3.4013   -0.3608 C   0  0  0  0  0  0  0  0  0  0  0  0
   -1.9913    3.1519   -0.4031 C   0  0  0  0  0  0  0  0  0  0  0  0
   -2.4822    1.8656   -0.2982 C   0  0  0  0  0  0  0  0  0  0  0  0
   -1.5807    0.8185   -0.1616 C   0  0  0  0  0  0  0  0  0  0  0  0
   -1.7336   -0.6019   -0.0075 C   0  0  0  0  0  0  0  0  0  0  0  0
   -2.8380   -1.4415    0.0444 C   0  0  0  0  0  0  0  0  0  0  0  0
   -2.6306   -2.7977    0.2003 C   0  0  0  0  0  0  0  0  0  0  0  0
   -1.3429   -3.3188    0.2964 C   0  0  0  0  0  0  0  0  0  0  0  0
   -0.2282   -2.5031    0.2453 C   0  0  0  0  0  0  0  0  0  0  0  0
   -0.4320   -1.1399    0.1005 C   0  0  0  0  0  0  0  0  0  0  0  0
    2.7887    0.3501   -0.7559 C   0  0  0  0  0  0  0  0  0  0  0  0
    4.9775    0.4094   -0.9230 H   0  0  0  0  0  0  0  0  0  0  0  0
    5.0665   -1.1782    1.1598 H   0  0  0  0  0  0  0  0  0  0  0  0
    1.3533    2.5797   -0.1818 H   0  0  0  0  0  0  0  0  0  0  0  0
   -0.2675    4.4192   -0.4298 H   0  0  0  0  0  0  0  0  0  0  0  0
   -2.6755    3.9802   -0.5115 H   0  0  0  0  0  0  0  0  0  0  0  0
   -3.5441    1.6727   -0.3171 H   0  0  0  0  0  0  0  0  0  0  0  0
   -3.8356   -1.0374   -0.0373 H   0  0  0  0  0  0  0  0  0  0  0  0
   -3.4760   -3.4680    0.2453 H   0  0  0  0  0  0  0  0  0  0  0  0
   -1.2108   -4.3844    0.4116 H   0  0  0  0  0  0  0  0  0  0  0  0
    0.7646   -2.9202    0.3149 H   0  0  0  0  0  0  0  0  0  0  0  0
    2.5224    0.9595   -1.6005 H   0  0  0  0  0  0  0  0  0  0  0  0
  1  2  2  0  0  0  0
  2  3  1  0  0  0  0
  3  4  1  0  0  0  0
  4  5  1  0  0  0  0
  5  6  1  0  0  0  0
  6  7  2  0  0  0  0
  7  8  1  0  0  0  0
  8  9  2  0  0  0  0
  9 10  1  0  0  0  0
 10 11  2  0  0  0  0
 11 12  1  0  0  0  0
 12 13  2  0  0  0  0
 13 14  1  0  0  0  0
 14 15  2  0  0  0  0
 15 16  1  0  0  0  0
 16 17  2  0  0  0  0
  4 18  2  0  0  0  0
 18  1  1  0  0  0  0
 17  5  1  0  0  0  0
 11  6  1  0  0  0  0
 17 12  1  0  0  0  0
  1 19  1  0  0  0  0
  2 20  1  0  0  0  0
  7 21  1  0  0  0  0
  8 22  1  0  0  0  0
  9 23  1  0  0  0  0
 10 24  1  0  0  0  0
 13 25  1  0  0  0  0
 14 26  1  0  0  0  0
 15 27  1  0  0  0  0
 16 28  1  0  0  0  0
 18 29  1  0  0  0  0
M  END
