
  xtb     03022215313D
 energy: -51.366930433317 gnorm: 0.000107489851 xtb: 6.4.1 (afa7bdf)
 34 36  0     0  0            999 V2000
    4.9190    0.9176   -0.0917 C   0  0  0  0  0  0  0  0  0  0  0  0
    4.2931   -0.3591   -0.6406 C   0  0  0  0  0  0  0  0  0  0  0  0
    2.7748   -0.2696   -0.7759 C   0  0  0  0  0  0  0  0  0  0  0  0
    2.0781   -0.1725    0.5812 C   0  0  0  0  0  0  0  0  0  0  0  0
    0.6321   -0.1366    0.4282 N   0  0  0  0  0  0  0  0  0  0  0  0
   -0.0471   -1.3247    0.3958 C   0  0  0  0  0  0  0  0  0  0  0  0
    0.7656   -2.7645    0.4879 S   0  0  0  0  0  0  0  0  0  0  0  0
   -1.4903   -1.3043    0.2715 C   0  0  0  0  0  0  0  0  0  0  0  0
   -2.2342   -2.4729    0.2698 C   0  0  0  0  0  0  0  0  0  0  0  0
   -3.6225   -2.4340    0.1527 C   0  0  0  0  0  0  0  0  0  0  0  0
   -4.2805   -1.2363    0.0359 C   0  0  0  0  0  0  0  0  0  0  0  0
   -3.5648   -0.0221    0.0324 C   0  0  0  0  0  0  0  0  0  0  0  0
   -4.2015    1.2297   -0.0867 C   0  0  0  0  0  0  0  0  0  0  0  0
   -3.4681    2.3886   -0.0885 C   0  0  0  0  0  0  0  0  0  0  0  0
   -2.0794    2.3500    0.0246 C   0  0  0  0  0  0  0  0  0  0  0  0
   -1.4118    1.1421    0.1442 C   0  0  0  0  0  0  0  0  0  0  0  0
   -2.1530   -0.0614    0.1523 C   0  0  0  0  0  0  0  0  0  0  0  0
    0.0307    1.0821    0.2626 C   0  0  0  0  0  0  0  0  0  0  0  0
    0.9350    2.4672    0.1878 S   0  0  0  0  0  0  0  0  0  0  0  0
    6.0035    0.8547   -0.1396 H   0  0  0  0  0  0  0  0  0  0  0  0
    4.6375    1.0816    0.9451 H   0  0  0  0  0  0  0  0  0  0  0  0
    4.5986    1.7784   -0.6742 H   0  0  0  0  0  0  0  0  0  0  0  0
    4.5486   -1.2026    0.0041 H   0  0  0  0  0  0  0  0  0  0  0  0
    4.7095   -0.5611   -1.6298 H   0  0  0  0  0  0  0  0  0  0  0  0
    2.4079   -1.1597   -1.2925 H   0  0  0  0  0  0  0  0  0  0  0  0
    2.5128    0.6056   -1.3748 H   0  0  0  0  0  0  0  0  0  0  0  0
    2.3327   -1.0396    1.1937 H   0  0  0  0  0  0  0  0  0  0  0  0
    2.3789    0.7396    1.0974 H   0  0  0  0  0  0  0  0  0  0  0  0
   -1.7241   -3.4194    0.3624 H   0  0  0  0  0  0  0  0  0  0  0  0
   -4.1764   -3.3605    0.1546 H   0  0  0  0  0  0  0  0  0  0  0  0
   -5.3563   -1.2055   -0.0557 H   0  0  0  0  0  0  0  0  0  0  0  0
   -5.2774    1.2588   -0.1768 H   0  0  0  0  0  0  0  0  0  0  0  0
   -3.9617    3.3443   -0.1788 H   0  0  0  0  0  0  0  0  0  0  0  0
   -1.5094    3.2663    0.0214 H   0  0  0  0  0  0  0  0  0  0  0  0
  1  2  1  0  0  0  0
  2  3  1  0  0  0  0
  3  4  1  0  0  0  0
  4  5  1  0  0  0  0
  5  6  1  0  0  0  0
  6  7  2  0  0  0  0
  6  8  1  0  0  0  0
  8  9  1  0  0  0  0
  9 10  2  0  0  0  0
 10 11  1  0  0  0  0
 11 12  2  0  0  0  0
 12 13  1  0  0  0  0
 13 14  2  0  0  0  0
 14 15  1  0  0  0  0
 15 16  2  0  0  0  0
 16 17  1  0  0  0  0
 16 18  1  0  0  0  0
 18 19  2  0  0  0  0
 18  5  1  0  0  0  0
 17  8  2  0  0  0  0
 17 12  1  0  0  0  0
  1 20  1  0  0  0  0
  1 21  1  0  0  0  0
  1 22  1  0  0  0  0
  2 23  1  0  0  0  0
  2 24  1  0  0  0  0
  3 25  1  0  0  0  0
  3 26  1  0  0  0  0
  4 27  1  0  0  0  0
  4 28  1  0  0  0  0
  9 29  1  0  0  0  0
 10 30  1  0  0  0  0
 11 31  1  0  0  0  0
 13 32  1  0  0  0  0
 14 33  1  0  0  0  0
 15 34  1  0  0  0  0
M  END
