
  xtb     03022213233D
 energy: -109.256296036474 gnorm: 0.000195247638 xtb: 6.4.1 (afa7bdf)
 70 76  0     0  0            999 V2000
   -8.3821   -3.2357   -2.0921 C   0  0  0  0  0  0  0  0  0  0  0  0
   -8.4036   -2.9617   -0.5886 C   0  0  0  0  0  0  0  0  0  0  0  0
   -8.0399   -1.6026   -0.2908 N   0  0  0  0  0  0  0  0  0  0  0  0
   -8.9058   -0.5332   -0.2483 C   0  0  0  0  0  0  0  0  0  0  0  0
  -10.2838   -0.5009   -0.4107 C   0  0  0  0  0  0  0  0  0  0  0  0
  -10.9181    0.7223   -0.3078 C   0  0  0  0  0  0  0  0  0  0  0  0
  -10.2070    1.8924   -0.0512 C   0  0  0  0  0  0  0  0  0  0  0  0
   -8.8359    1.8692    0.1083 C   0  0  0  0  0  0  0  0  0  0  0  0
   -8.1764    0.6517    0.0085 C   0  0  0  0  0  0  0  0  0  0  0  0
   -6.7971    0.2638    0.1039 C   0  0  0  0  0  0  0  0  0  0  0  0
   -5.6267    0.9663    0.3306 C   0  0  0  0  0  0  0  0  0  0  0  0
   -4.4215    0.2673    0.3440 C   0  0  0  0  0  0  0  0  0  0  0  0
   -3.2123    0.9570    0.5598 C   0  0  0  0  0  0  0  0  0  0  0  0
   -2.1712    1.5444    0.7378 C   0  0  0  0  0  0  0  0  0  0  0  0
   -0.9564    2.2371    0.9285 C   0  0  0  0  0  0  0  0  0  0  0  0
    0.2687    1.6074    0.7190 C   0  0  0  0  0  0  0  0  0  0  0  0
    1.4107    2.3899    0.9148 C   0  0  0  0  0  0  0  0  0  0  0  0
    2.6968    1.8465    0.7081 C   0  0  0  0  0  0  0  0  0  0  0  0
    3.7925    1.3729    0.5197 C   0  0  0  0  0  0  0  0  0  0  0  0
    5.0766    0.8378    0.2979 C   0  0  0  0  0  0  0  0  0  0  0  0
    6.1910    1.6940    0.3434 C   0  0  0  0  0  0  0  0  0  0  0  0
    7.4669    1.2240    0.1271 C   0  0  0  0  0  0  0  0  0  0  0  0
    7.6322   -0.1320   -0.1350 C   0  0  0  0  0  0  0  0  0  0  0  0
    6.5160   -1.0054   -0.1837 C   0  0  0  0  0  0  0  0  0  0  0  0
    5.2379   -0.5201    0.0323 C   0  0  0  0  0  0  0  0  0  0  0  0
    7.0379   -2.3095   -0.4819 C   0  0  0  0  0  0  0  0  0  0  0  0
    6.4531   -3.5560   -0.6588 C   0  0  0  0  0  0  0  0  0  0  0  0
    7.2668   -4.6322   -0.9515 C   0  0  0  0  0  0  0  0  0  0  0  0
    8.6460   -4.4759   -1.0698 C   0  0  0  0  0  0  0  0  0  0  0  0
    9.2508   -3.2456   -0.8982 C   0  0  0  0  0  0  0  0  0  0  0  0
    8.4402   -2.1593   -0.5995 C   0  0  0  0  0  0  0  0  0  0  0  0
    8.7796   -0.8456   -0.3691 N   0  0  0  0  0  0  0  0  0  0  0  0
   10.1042   -0.2942   -0.4661 C   0  0  0  0  0  0  0  0  0  0  0  0
   10.4221    0.1626   -1.8896 C   0  0  0  0  0  0  0  0  0  0  0  0
    1.3331    3.6665    1.2929 N   0  0  0  0  0  0  0  0  0  0  0  0
    0.1163    4.1599    1.4737 C   0  0  0  0  0  0  0  0  0  0  0  0
    0.0828    5.4360    1.8576 O   0  0  0  0  0  0  0  0  0  0  0  0
   -1.2008    5.9935    2.0597 C   0  0  0  0  0  0  0  0  0  0  0  0
   -1.0303    3.5179    1.3087 N   0  0  0  0  0  0  0  0  0  0  0  0
   -4.4002   -1.1227    0.1348 C   0  0  0  0  0  0  0  0  0  0  0  0
   -5.5586   -1.8338   -0.0867 C   0  0  0  0  0  0  0  0  0  0  0  0
   -6.7634   -1.1393   -0.1013 C   0  0  0  0  0  0  0  0  0  0  0  0
   -9.0824   -2.5797   -2.6039 H   0  0  0  0  0  0  0  0  0  0  0  0
   -8.6593   -4.2677   -2.2898 H   0  0  0  0  0  0  0  0  0  0  0  0
   -7.3872   -3.0564   -2.4931 H   0  0  0  0  0  0  0  0  0  0  0  0
   -9.4038   -3.1479   -0.1878 H   0  0  0  0  0  0  0  0  0  0  0  0
   -7.7048   -3.6283   -0.0758 H   0  0  0  0  0  0  0  0  0  0  0  0
  -10.8510   -1.3968   -0.6147 H   0  0  0  0  0  0  0  0  0  0  0  0
  -11.9899    0.7728   -0.4317 H   0  0  0  0  0  0  0  0  0  0  0  0
  -10.7404    2.8284    0.0209 H   0  0  0  0  0  0  0  0  0  0  0  0
   -8.2837    2.7757    0.3051 H   0  0  0  0  0  0  0  0  0  0  0  0
   -5.6368    2.0338    0.4893 H   0  0  0  0  0  0  0  0  0  0  0  0
    0.3324    0.5759    0.4140 H   0  0  0  0  0  0  0  0  0  0  0  0
    6.0267    2.7410    0.5495 H   0  0  0  0  0  0  0  0  0  0  0  0
    8.3090    1.8989    0.1598 H   0  0  0  0  0  0  0  0  0  0  0  0
    4.3800   -1.1745   -0.0029 H   0  0  0  0  0  0  0  0  0  0  0  0
    5.3840   -3.6763   -0.5688 H   0  0  0  0  0  0  0  0  0  0  0  0
    6.8330   -5.6108   -1.0935 H   0  0  0  0  0  0  0  0  0  0  0  0
    9.2563   -5.3360   -1.3031 H   0  0  0  0  0  0  0  0  0  0  0  0
   10.3210   -3.1427   -0.9981 H   0  0  0  0  0  0  0  0  0  0  0  0
   10.1803    0.5501    0.2245 H   0  0  0  0  0  0  0  0  0  0  0  0
   10.8206   -1.0565   -0.1481 H   0  0  0  0  0  0  0  0  0  0  0  0
   11.4274    0.5725   -1.9371 H   0  0  0  0  0  0  0  0  0  0  0  0
    9.7161    0.9270   -2.2060 H   0  0  0  0  0  0  0  0  0  0  0  0
   10.3521   -0.6764   -2.5782 H   0  0  0  0  0  0  0  0  0  0  0  0
   -1.7407    5.4517    2.8398 H   0  0  0  0  0  0  0  0  0  0  0  0
   -1.7892    5.9563    1.1400 H   0  0  0  0  0  0  0  0  0  0  0  0
   -1.0318    7.0251    2.3613 H   0  0  0  0  0  0  0  0  0  0  0  0
   -3.4486   -1.6334    0.1495 H   0  0  0  0  0  0  0  0  0  0  0  0
   -5.5202   -2.9007   -0.2481 H   0  0  0  0  0  0  0  0  0  0  0  0
  1  2  1  0  0  0  0
  2  3  1  0  0  0  0
  3  4  1  0  0  0  0
  4  5  2  0  0  0  0
  5  6  1  0  0  0  0
  6  7  2  0  0  0  0
  7  8  1  0  0  0  0
  8  9  2  0  0  0  0
  9 10  1  0  0  0  0
 10 11  2  0  0  0  0
 11 12  1  0  0  0  0
 12 13  1  0  0  0  0
 13 14  3  0  0  0  0
 14 15  1  0  0  0  0
 15 16  2  0  0  0  0
 16 17  1  0  0  0  0
 17 18  1  0  0  0  0
 18 19  3  0  0  0  0
 19 20  1  0  0  0  0
 20 21  2  0  0  0  0
 21 22  1  0  0  0  0
 22 23  2  0  0  0  0
 23 24  1  0  0  0  0
 24 25  2  0  0  0  0
 24 26  1  0  0  0  0
 26 27  2  0  0  0  0
 27 28  1  0  0  0  0
 28 29  2  0  0  0  0
 29 30  1  0  0  0  0
 30 31  2  0  0  0  0
 31 32  1  0  0  0  0
 32 33  1  0  0  0  0
 33 34  1  0  0  0  0
 17 35  2  0  0  0  0
 35 36  1  0  0  0  0
 36 37  1  0  0  0  0
 37 38  1  0  0  0  0
 36 39  2  0  0  0  0
 12 40  2  0  0  0  0
 40 41  1  0  0  0  0
 41 42  2  0  0  0  0
 42  3  1  0  0  0  0
  9  4  1  0  0  0  0
 42 10  1  0  0  0  0
 39 15  1  0  0  0  0
 25 20  1  0  0  0  0
 31 26  1  0  0  0  0
 32 23  1  0  0  0  0
  1 43  1  0  0  0  0
  1 44  1  0  0  0  0
  1 45  1  0  0  0  0
  2 46  1  0  0  0  0
  2 47  1  0  0  0  0
  5 48  1  0  0  0  0
  6 49  1  0  0  0  0
  7 50  1  0  0  0  0
  8 51  1  0  0  0  0
 11 52  1  0  0  0  0
 16 53  1  0  0  0  0
 21 54  1  0  0  0  0
 22 55  1  0  0  0  0
 25 56  1  0  0  0  0
 27 57  1  0  0  0  0
 28 58  1  0  0  0  0
 29 59  1  0  0  0  0
 30 60  1  0  0  0  0
 33 61  1  0  0  0  0
 33 62  1  0  0  0  0
 34 63  1  0  0  0  0
 34 64  1  0  0  0  0
 34 65  1  0  0  0  0
 38 66  1  0  0  0  0
 38 67  1  0  0  0  0
 38 68  1  0  0  0  0
 40 69  1  0  0  0  0
 41 70  1  0  0  0  0
M  END
