
  xtb     03022213323D
 energy: -36.031413361305 gnorm: 0.000354768227 xtb: 6.4.1 (afa7bdf)
 20 21  0     0  0            999 V2000
   -1.9865   -2.4094   -0.4861 O   0  0  0  0  0  0  0  0  0  0  0  0
   -2.2279   -1.2965   -0.1054 C   0  0  0  0  0  0  0  0  0  0  0  0
   -3.4964   -0.9220    0.1824 O   0  0  0  0  0  0  0  0  0  0  0  0
   -1.2610   -0.1931    0.1099 C   0  0  0  0  0  0  0  0  0  0  0  0
   -1.7072    1.0330    0.5549 C   0  0  0  0  0  0  0  0  0  0  0  0
   -0.8254    2.0977    0.7697 C   0  0  0  0  0  0  0  0  0  0  0  0
    0.5138    1.9414    0.5397 C   0  0  0  0  0  0  0  0  0  0  0  0
    1.0173    0.7077    0.0845 C   0  0  0  0  0  0  0  0  0  0  0  0
    2.3900    0.4966   -0.1672 C   0  0  0  0  0  0  0  0  0  0  0  0
    2.8116   -0.7267   -0.6080 C   0  0  0  0  0  0  0  0  0  0  0  0
    1.8468   -1.7346   -0.7939 C   0  0  0  0  0  0  0  0  0  0  0  0
    0.5752   -1.5740   -0.5717 N   0  0  0  0  0  0  0  0  0  0  0  0
    0.1286   -0.3845   -0.1380 C   0  0  0  0  0  0  0  0  0  0  0  0
   -4.0874   -1.6747    0.0263 H   0  0  0  0  0  0  0  0  0  0  0  0
   -2.7605    1.1728    0.7411 H   0  0  0  0  0  0  0  0  0  0  0  0
   -1.2136    3.0429    1.1187 H   0  0  0  0  0  0  0  0  0  0  0  0
    1.2045    2.7572    0.7023 H   0  0  0  0  0  0  0  0  0  0  0  0
    3.0853    1.3094   -0.0062 H   0  0  0  0  0  0  0  0  0  0  0  0
    3.8523   -0.9267   -0.8114 H   0  0  0  0  0  0  0  0  0  0  0  0
    2.1407   -2.7166   -1.1418 H   0  0  0  0  0  0  0  0  0  0  0  0
  1  2  2  0  0  0  0
  2  3  1  0  0  0  0
  2  4  1  0  0  0  0
  4  5  2  0  0  0  0
  5  6  1  0  0  0  0
  6  7  2  0  0  0  0
  7  8  1  0  0  0  0
  8  9  2  0  0  0  0
  9 10  1  0  0  0  0
 10 11  2  0  0  0  0
 11 12  1  0  0  0  0
 12 13  2  0  0  0  0
 13  4  1  0  0  0  0
 13  8  1  0  0  0  0
  3 14  1  0  0  0  0
  5 15  1  0  0  0  0
  6 16  1  0  0  0  0
  7 17  1  0  0  0  0
  9 18  1  0  0  0  0
 10 19  1  0  0  0  0
 11 20  1  0  0  0  0
M  END
