
  xtb     03022212553D
 energy: -53.720007380738 gnorm: 0.000339995855 xtb: 6.4.1 (afa7bdf)
 33 35  0     0  0            999 V2000
    1.9356   -3.0195    0.0362 C   0  0  0  0  0  0  0  0  0  0  0  0
    0.9152   -2.0208    0.1973 N   0  0  0  0  0  0  0  0  0  0  0  0
   -0.3957   -2.3470    0.5133 C   0  0  0  0  0  0  0  0  0  0  0  0
   -0.8019   -3.4605    0.7572 O   0  0  0  0  0  0  0  0  0  0  0  0
   -1.1043   -1.0451    0.4519 C   0  0  0  0  0  0  0  0  0  0  0  0
   -2.4231   -0.9079    0.7170 C   0  0  0  0  0  0  0  0  0  0  0  0
   -3.2044    0.3021    0.6839 C   0  0  0  0  0  0  0  0  0  0  0  0
   -2.6520    1.5546    0.3905 C   0  0  0  0  0  0  0  0  0  0  0  0
   -3.4854    2.6586    0.3807 C   0  0  0  0  0  0  0  0  0  0  0  0
   -4.7839    2.6043    0.6337 N   0  0  0  0  0  0  0  0  0  0  0  0
   -5.3105    1.4230    0.9131 C   0  0  0  0  0  0  0  0  0  0  0  0
   -4.5779    0.2506    0.9530 C   0  0  0  0  0  0  0  0  0  0  0  0
   -0.1932   -0.0783    0.0835 N   0  0  0  0  0  0  0  0  0  0  0  0
    0.9574   -0.6632   -0.0531 C   0  0  0  0  0  0  0  0  0  0  0  0
    2.1461    0.0711   -0.4593 C   0  0  0  0  0  0  0  0  0  0  0  0
    1.9783    1.1558   -1.3225 C   0  0  0  0  0  0  0  0  0  0  0  0
    3.0697    1.8911   -1.7395 C   0  0  0  0  0  0  0  0  0  0  0  0
    4.3407    1.5628   -1.2939 C   0  0  0  0  0  0  0  0  0  0  0  0
    4.5119    0.5040   -0.4178 C   0  0  0  0  0  0  0  0  0  0  0  0
    3.4244   -0.2410    0.0001 C   0  0  0  0  0  0  0  0  0  0  0  0
    1.4278   -3.9745   -0.1099 H   0  0  0  0  0  0  0  0  0  0  0  0
    2.5599   -3.0972    0.9295 H   0  0  0  0  0  0  0  0  0  0  0  0
    2.5583   -2.7939   -0.8293 H   0  0  0  0  0  0  0  0  0  0  0  0
   -2.9451   -1.8199    0.9806 H   0  0  0  0  0  0  0  0  0  0  0  0
   -1.5981    1.6363    0.1822 H   0  0  0  0  0  0  0  0  0  0  0  0
   -3.0982    3.6449    0.1589 H   0  0  0  0  0  0  0  0  0  0  0  0
   -6.3742    1.4232    1.1145 H   0  0  0  0  0  0  0  0  0  0  0  0
   -5.0550   -0.6896    1.1859 H   0  0  0  0  0  0  0  0  0  0  0  0
    0.9824    1.3991   -1.6579 H   0  0  0  0  0  0  0  0  0  0  0  0
    2.9314    2.7234   -2.4133 H   0  0  0  0  0  0  0  0  0  0  0  0
    5.1950    2.1360   -1.6218 H   0  0  0  0  0  0  0  0  0  0  0  0
    5.4986    0.2577   -0.0542 H   0  0  0  0  0  0  0  0  0  0  0  0
    3.5703   -1.0399    0.7095 H   0  0  0  0  0  0  0  0  0  0  0  0
  1  2  1  0  0  0  0
  2  3  1  0  0  0  0
  3  4  2  0  0  0  0
  3  5  1  0  0  0  0
  5  6  2  0  0  0  0
  6  7  1  0  0  0  0
  7  8  2  0  0  0  0
  8  9  1  0  0  0  0
  9 10  2  0  0  0  0
 10 11  1  0  0  0  0
 11 12  2  0  0  0  0
  5 13  1  0  0  0  0
 13 14  2  0  0  0  0
 14 15  1  0  0  0  0
 15 16  2  0  0  0  0
 16 17  1  0  0  0  0
 17 18  2  0  0  0  0
 18 19  1  0  0  0  0
 19 20  2  0  0  0  0
 14  2  1  0  0  0  0
 20 15  1  0  0  0  0
 12  7  1  0  0  0  0
  1 21  1  0  0  0  0
  1 22  1  0  0  0  0
  1 23  1  0  0  0  0
  6 24  1  0  0  0  0
  8 25  1  0  0  0  0
  9 26  1  0  0  0  0
 11 27  1  0  0  0  0
 12 28  1  0  0  0  0
 16 29  1  0  0  0  0
 17 30  1  0  0  0  0
 18 31  1  0  0  0  0
 19 32  1  0  0  0  0
 20 33  1  0  0  0  0
M  END
