
  xtb     03022213163D
 energy: -106.632989457501 gnorm: 0.000330603339 xtb: 6.4.1 (afa7bdf)
 67 72  0     0  0            999 V2000
   -0.8402   -3.0423   -0.1903 C   0  0  0  0  0  0  0  0  0  0  0  0
   -2.2181   -2.4901   -0.1191 C   0  0  0  0  0  0  0  0  0  0  0  0
   -3.3876   -3.2245   -0.1546 C   0  0  0  0  0  0  0  0  0  0  0  0
   -4.4656   -2.3333   -0.0684 C   0  0  0  0  0  0  0  0  0  0  0  0
   -5.9125   -2.6392   -0.0694 C   0  0  0  0  0  0  0  0  0  0  0  0
   -3.9947   -1.0852    0.0196 N   0  0  0  0  0  4  0  0  0  0  0  0
   -2.6129   -1.1262   -0.0061 C   0  0  0  0  0  0  0  0  0  0  0  0
   -1.8565    0.0423    0.0750 C   0  0  0  0  0  0  0  0  0  0  0  0
   -0.3918   -0.0368    0.0388 C   0  0  0  0  0  0  0  0  0  0  0  0
    0.4240    0.0817   -1.0793 C   0  0  0  0  0  0  0  0  0  0  0  0
   -0.0972    0.3581   -2.4469 C   0  0  0  0  0  0  0  0  0  0  0  0
    1.7635   -0.0678   -0.6189 C   0  0  0  0  0  0  0  0  0  0  0  0
    2.9917   -0.0403   -1.2931 C   0  0  0  0  0  0  0  0  0  0  0  0
    3.0208    0.0259   -2.7851 C   0  0  0  0  0  0  0  0  0  0  0  0
    4.1857   -0.0921   -0.5702 C   0  0  0  0  0  0  0  0  0  0  0  0
    5.5500    0.0315   -0.9760 C   0  0  0  0  0  0  0  0  0  0  0  0
    6.1187    0.3026   -2.3243 C   0  0  0  0  0  0  0  0  0  0  0  0
    6.3092   -0.1010    0.1699 C   0  0  0  0  0  0  0  0  0  0  0  0
    5.4407   -0.3008    1.2491 C   0  0  0  0  0  0  0  0  0  0  0  0
    5.7786   -0.5099    2.6730 C   0  0  0  0  0  0  0  0  0  0  0  0
    4.1821   -0.2784    0.8022 N   0  0  0  0  0  0  0  0  0  0  0  0
    2.9276   -0.4422    1.6721 B   0  0  0  0  0  4  0  0  0  0  0  0
    2.9103    0.5177    2.6707 F   0  0  0  0  0  0  0  0  0  0  0  0
    2.8967   -1.7036    2.2462 F   0  0  0  0  0  0  0  0  0  0  0  0
    1.7108   -0.2525    0.7505 N   0  0  0  0  0  4  0  0  0  0  0  0
    0.4371   -0.2514    1.1519 C   0  0  0  0  0  0  0  0  0  0  0  0
    0.0291   -0.4377    2.5614 C   0  0  0  0  0  0  0  0  0  0  0  0
   -2.4828    1.2827    0.1932 C   0  0  0  0  0  0  0  0  0  0  0  0
   -1.9432    2.5939    0.3251 C   0  0  0  0  0  0  0  0  0  0  0  0
   -0.5126    2.9947    0.3681 C   0  0  0  0  0  0  0  0  0  0  0  0
   -3.0270    3.4458    0.4163 C   0  0  0  0  0  0  0  0  0  0  0  0
   -4.1951    2.6754    0.3429 C   0  0  0  0  0  0  0  0  0  0  0  0
   -5.6010    3.1311    0.3955 C   0  0  0  0  0  0  0  0  0  0  0  0
   -3.8613    1.3874    0.2121 N   0  0  0  0  0  0  0  0  0  0  0  0
   -4.8375    0.2005    0.1109 B   0  0  0  0  0  4  0  0  0  0  0  0
   -5.6527    0.1583    1.2304 F   0  0  0  0  0  0  0  0  0  0  0  0
   -5.6263    0.3306   -1.0236 F   0  0  0  0  0  0  0  0  0  0  0  0
   -0.2778   -2.8130    0.7133 H   0  0  0  0  0  0  0  0  0  0  0  0
   -0.2945   -2.6203   -1.0329 H   0  0  0  0  0  0  0  0  0  0  0  0
   -0.8854   -4.1225   -0.3070 H   0  0  0  0  0  0  0  0  0  0  0  0
   -3.4714   -4.2910   -0.2341 H   0  0  0  0  0  0  0  0  0  0  0  0
   -6.0790   -3.7081   -0.1672 H   0  0  0  0  0  0  0  0  0  0  0  0
   -6.3996   -2.1123   -0.8888 H   0  0  0  0  0  0  0  0  0  0  0  0
   -6.3656   -2.2783    0.8530 H   0  0  0  0  0  0  0  0  0  0  0  0
    0.4421    1.1752   -2.9223 H   0  0  0  0  0  0  0  0  0  0  0  0
   -1.1492    0.6281   -2.3781 H   0  0  0  0  0  0  0  0  0  0  0  0
   -0.0229   -0.5218   -3.0877 H   0  0  0  0  0  0  0  0  0  0  0  0
    3.8970   -0.4808   -3.1721 H   0  0  0  0  0  0  0  0  0  0  0  0
    2.1397   -0.4439   -3.2056 H   0  0  0  0  0  0  0  0  0  0  0  0
    3.0494    1.0633   -3.1193 H   0  0  0  0  0  0  0  0  0  0  0  0
    7.1751    0.5420   -2.2238 H   0  0  0  0  0  0  0  0  0  0  0  0
    5.6176    1.1395   -2.8063 H   0  0  0  0  0  0  0  0  0  0  0  0
    6.0359   -0.5704   -2.9729 H   0  0  0  0  0  0  0  0  0  0  0  0
    7.3789   -0.0555    0.2352 H   0  0  0  0  0  0  0  0  0  0  0  0
    6.8554   -0.5385    2.8116 H   0  0  0  0  0  0  0  0  0  0  0  0
    5.3511    0.2906    3.2752 H   0  0  0  0  0  0  0  0  0  0  0  0
    5.3352   -1.4408    3.0231 H   0  0  0  0  0  0  0  0  0  0  0  0
   -1.0513   -0.5298    2.6347 H   0  0  0  0  0  0  0  0  0  0  0  0
    0.3641    0.4090    3.1603 H   0  0  0  0  0  0  0  0  0  0  0  0
    0.5097   -1.3234    2.9739 H   0  0  0  0  0  0  0  0  0  0  0  0
   -0.4387    4.0651    0.5449 H   0  0  0  0  0  0  0  0  0  0  0  0
   -0.0145    2.7608   -0.5717 H   0  0  0  0  0  0  0  0  0  0  0  0
    0.0175    2.4703    1.1614 H   0  0  0  0  0  0  0  0  0  0  0  0
   -2.9951    4.5124    0.5271 H   0  0  0  0  0  0  0  0  0  0  0  0
   -5.6515    4.2146    0.4578 H   0  0  0  0  0  0  0  0  0  0  0  0
   -6.1341    2.7850   -0.4890 H   0  0  0  0  0  0  0  0  0  0  0  0
   -6.0984    2.6894    1.2585 H   0  0  0  0  0  0  0  0  0  0  0  0
  1  2  1  0  0  0  0
  2  3  2  0  0  0  0
  3  4  1  0  0  0  0
  4  5  1  0  0  0  0
  4  6  2  0  0  0  0
  6  7  1  0  0  0  0
  7  8  2  0  0  0  0
  8  9  1  0  0  0  0
  9 10  2  0  0  0  0
 10 11  1  0  0  0  0
 10 12  1  0  0  0  0
 12 13  2  0  0  0  0
 13 14  1  0  0  0  0
 13 15  1  0  0  0  0
 15 16  2  0  0  0  0
 16 17  1  0  0  0  0
 16 18  1  0  0  0  0
 18 19  2  0  0  0  0
 19 20  1  0  0  0  0
 19 21  1  0  0  0  0
 21 22  1  0  0  0  0
 22 23  1  0  0  0  0
 22 24  1  0  0  0  0
 22 25  1  0  0  0  0
 25 26  2  0  0  0  0
 26 27  1  0  0  0  0
  8 28  1  0  0  0  0
 28 29  2  0  0  0  0
 29 30  1  0  0  0  0
 29 31  1  0  0  0  0
 31 32  2  0  0  0  0
 32 33  1  0  0  0  0
 32 34  1  0  0  0  0
 34 35  1  0  0  0  0
 35 36  1  0  0  0  0
 35 37  1  0  0  0  0
  7  2  1  0  0  0  0
 26  9  1  0  0  0  0
 34 28  1  0  0  0  0
 35  6  1  0  0  0  0
 25 12  1  0  0  0  0
 21 15  1  0  0  0  0
  1 38  1  0  0  0  0
  1 39  1  0  0  0  0
  1 40  1  0  0  0  0
  3 41  1  0  0  0  0
  5 42  1  0  0  0  0
  5 43  1  0  0  0  0
  5 44  1  0  0  0  0
 11 45  1  0  0  0  0
 11 46  1  0  0  0  0
 11 47  1  0  0  0  0
 14 48  1  0  0  0  0
 14 49  1  0  0  0  0
 14 50  1  0  0  0  0
 17 51  1  0  0  0  0
 17 52  1  0  0  0  0
 17 53  1  0  0  0  0
 18 54  1  0  0  0  0
 20 55  1  0  0  0  0
 20 56  1  0  0  0  0
 20 57  1  0  0  0  0
 27 58  1  0  0  0  0
 27 59  1  0  0  0  0
 27 60  1  0  0  0  0
 30 61  1  0  0  0  0
 30 62  1  0  0  0  0
 30 63  1  0  0  0  0
 31 64  1  0  0  0  0
 33 65  1  0  0  0  0
 33 66  1  0  0  0  0
 33 67  1  0  0  0  0
M  CHG  1   6   1
M  CHG  1  22  -1
M  CHG  1  25   1
M  CHG  1  35  -1
M  END
