
  xtb     03022215343D
 energy: -46.802949548976 gnorm: 0.000198457548 xtb: 6.4.1 (afa7bdf)
 26 28  0     0  0            999 V2000
   -2.9027   -2.2473   -0.1509 C   0  0  0  0  0  0  0  0  0  0  0  0
   -2.2407   -0.9609   -0.0943 N   0  0  0  0  0  0  0  0  0  0  0  0
   -0.9175   -1.0125   -0.0515 N   0  0  0  0  0  0  0  0  0  0  0  0
   -0.1678    0.0482   -0.0035 C   0  0  0  0  0  0  0  0  0  0  0  0
    1.2805   -0.1345    0.0399 C   0  0  0  0  0  0  0  0  0  0  0  0
    1.8167   -1.4241    0.0379 C   0  0  0  0  0  0  0  0  0  0  0  0
    3.1831   -1.6122    0.0778 C   0  0  0  0  0  0  0  0  0  0  0  0
    4.0364   -0.5200    0.1199 C   0  0  0  0  0  0  0  0  0  0  0  0
    3.5124    0.7618    0.1219 C   0  0  0  0  0  0  0  0  0  0  0  0
    2.1443    0.9590    0.0825 C   0  0  0  0  0  0  0  0  0  0  0  0
   -0.8204    1.3257    0.0047 C   0  0  0  0  0  0  0  0  0  0  0  0
   -0.3810    2.5843    0.0502 N   0  0  0  0  0  0  0  0  0  0  0  0
   -1.4787    3.3037    0.0327 N   0  0  0  0  0  0  0  0  0  0  0  0
   -2.6085    2.6544   -0.0200 N   0  0  0  0  0  0  0  0  0  0  0  0
   -2.2419    1.3752   -0.0399 C   0  0  0  0  0  0  0  0  0  0  0  0
   -3.0491    0.1715   -0.0976 C   0  0  0  0  0  0  0  0  0  0  0  0
   -4.2571    0.0769   -0.1426 O   0  0  0  0  0  0  0  0  0  0  0  0
   -3.6771   -2.2887    0.6149 H   0  0  0  0  0  0  0  0  0  0  0  0
   -2.1561   -3.0188    0.0131 H   0  0  0  0  0  0  0  0  0  0  0  0
   -3.3761   -2.3806   -1.1247 H   0  0  0  0  0  0  0  0  0  0  0  0
    1.1429   -2.2652    0.0045 H   0  0  0  0  0  0  0  0  0  0  0  0
    3.5882   -2.6135    0.0761 H   0  0  0  0  0  0  0  0  0  0  0  0
    5.1058   -0.6687    0.1509 H   0  0  0  0  0  0  0  0  0  0  0  0
    4.1740    1.6150    0.1544 H   0  0  0  0  0  0  0  0  0  0  0  0
    1.7386    1.9581    0.0843 H   0  0  0  0  0  0  0  0  0  0  0  0
   -1.4480    4.3136    0.0591 H   0  0  0  0  0  0  0  0  0  0  0  0
  1  2  1  0  0  0  0
  2  3  1  0  0  0  0
  3  4  2  0  0  0  0
  4  5  1  0  0  0  0
  5  6  2  0  0  0  0
  6  7  1  0  0  0  0
  7  8  2  0  0  0  0
  8  9  1  0  0  0  0
  9 10  2  0  0  0  0
  4 11  1  0  0  0  0
 11 12  2  0  0  0  0
 12 13  1  0  0  0  0
 13 14  1  0  0  0  0
 14 15  2  0  0  0  0
 15 16  1  0  0  0  0
 16 17  2  0  0  0  0
 16  2  1  0  0  0  0
 10  5  1  0  0  0  0
 15 11  1  0  0  0  0
  1 18  1  0  0  0  0
  1 19  1  0  0  0  0
  1 20  1  0  0  0  0
  6 21  1  0  0  0  0
  7 22  1  0  0  0  0
  8 23  1  0  0  0  0
  9 24  1  0  0  0  0
 10 25  1  0  0  0  0
 13 26  1  0  0  0  0
M  END
