
  xtb     03022213513D
 energy: -100.178649086383 gnorm: 0.000091633822 xtb: 6.4.1 (afa7bdf)
 52 59  0     0  0            999 V2000
    8.2108   -1.3971   -2.9675 F   0  0  0  0  0  0  0  0  0  0  0  0
    7.1753   -2.0128   -2.3713 C   0  0  0  0  0  0  0  0  0  0  0  0
    7.6024   -3.2589   -2.0852 F   0  0  0  0  0  0  0  0  0  0  0  0
    6.2249   -2.1486   -3.3061 F   0  0  0  0  0  0  0  0  0  0  0  0
    6.7032   -1.2831   -1.1459 C   0  0  0  0  0  0  0  0  0  0  0  0
    7.6651   -0.8775   -0.2168 C   0  0  0  0  0  0  0  0  0  0  0  0
    7.3005   -0.2155    0.9402 C   0  0  0  0  0  0  0  0  0  0  0  0
    5.9521    0.0252    1.1387 C   0  0  0  0  0  0  0  0  0  0  0  0
    5.3947    0.6600    2.2015 O   0  0  0  0  0  0  0  0  0  0  0  0
    4.0636    0.6777    1.9847 C   0  0  0  0  0  0  0  0  0  0  0  0
    3.2244    1.2334    2.8357 N   0  0  0  0  0  0  0  0  0  0  0  0
    1.9642    1.1576    2.4526 C   0  0  0  0  0  0  0  0  0  0  0  0
    0.9646    1.6729    3.1851 O   0  0  0  0  0  0  0  0  0  0  0  0
   -0.1891    1.4230    2.4968 C   0  0  0  0  0  0  0  0  0  0  0  0
   -1.4697    1.7824    2.8749 C   0  0  0  0  0  0  0  0  0  0  0  0
   -2.5058    1.4290    2.0314 C   0  0  0  0  0  0  0  0  0  0  0  0
   -2.2741    0.7427    0.8323 C   0  0  0  0  0  0  0  0  0  0  0  0
   -3.3565    0.4065    0.0111 N   0  0  0  0  0  0  0  0  0  0  0  0
   -4.3432    1.2709   -0.4248 C   0  0  0  0  0  0  0  0  0  0  0  0
   -4.4756    2.6363   -0.2188 C   0  0  0  0  0  0  0  0  0  0  0  0
   -5.5539    3.2743   -0.8019 C   0  0  0  0  0  0  0  0  0  0  0  0
   -6.4778    2.5790   -1.5787 C   0  0  0  0  0  0  0  0  0  0  0  0
   -6.3380    1.2245   -1.8058 C   0  0  0  0  0  0  0  0  0  0  0  0
   -5.2618    0.5613   -1.2310 C   0  0  0  0  0  0  0  0  0  0  0  0
   -4.8039   -0.7998   -1.2725 C   0  0  0  0  0  0  0  0  0  0  0  0
   -5.2895   -1.9528   -1.8750 C   0  0  0  0  0  0  0  0  0  0  0  0
   -4.6010   -3.1353   -1.6914 C   0  0  0  0  0  0  0  0  0  0  0  0
   -3.4504   -3.1800   -0.9077 C   0  0  0  0  0  0  0  0  0  0  0  0
   -2.9476   -2.0459   -0.2986 C   0  0  0  0  0  0  0  0  0  0  0  0
   -3.6231   -0.8509   -0.4977 C   0  0  0  0  0  0  0  0  0  0  0  0
   -0.9848    0.3889    0.4533 C   0  0  0  0  0  0  0  0  0  0  0  0
    0.0618    0.7286    1.2967 C   0  0  0  0  0  0  0  0  0  0  0  0
    1.4873    0.5493    1.2562 C   0  0  0  0  0  0  0  0  0  0  0  0
    2.3892   -0.0277    0.3779 C   0  0  0  0  0  0  0  0  0  0  0  0
    3.7210    0.0432    0.7601 C   0  0  0  0  0  0  0  0  0  0  0  0
    4.9747   -0.3849    0.2057 C   0  0  0  0  0  0  0  0  0  0  0  0
    5.3519   -1.0495   -0.9517 C   0  0  0  0  0  0  0  0  0  0  0  0
    8.7053   -1.0840   -0.4149 H   0  0  0  0  0  0  0  0  0  0  0  0
    8.0325    0.1041    1.6627 H   0  0  0  0  0  0  0  0  0  0  0  0
   -1.6475    2.3092    3.7978 H   0  0  0  0  0  0  0  0  0  0  0  0
   -3.5221    1.6708    2.3014 H   0  0  0  0  0  0  0  0  0  0  0  0
   -3.7550    3.1873    0.3667 H   0  0  0  0  0  0  0  0  0  0  0  0
   -5.6807    4.3367   -0.6549 H   0  0  0  0  0  0  0  0  0  0  0  0
   -7.3082    3.1135   -2.0151 H   0  0  0  0  0  0  0  0  0  0  0  0
   -7.0447    0.6885   -2.4210 H   0  0  0  0  0  0  0  0  0  0  0  0
   -6.1900   -1.9210   -2.4693 H   0  0  0  0  0  0  0  0  0  0  0  0
   -4.9607   -4.0430   -2.1522 H   0  0  0  0  0  0  0  0  0  0  0  0
   -2.9417   -4.1226   -0.7694 H   0  0  0  0  0  0  0  0  0  0  0  0
   -2.0657   -2.0948    0.3225 H   0  0  0  0  0  0  0  0  0  0  0  0
   -0.8067   -0.1234   -0.4790 H   0  0  0  0  0  0  0  0  0  0  0  0
    2.0784   -0.4983   -0.5418 H   0  0  0  0  0  0  0  0  0  0  0  0
    4.6205   -1.3691   -1.6768 H   0  0  0  0  0  0  0  0  0  0  0  0
  1  2  1  0  0  0  0
  2  3  1  0  0  0  0
  2  4  1  0  0  0  0
  2  5  1  0  0  0  0
  5  6  2  0  0  0  0
  6  7  1  0  0  0  0
  7  8  2  0  0  0  0
  8  9  1  0  0  0  0
  9 10  1  0  0  0  0
 10 11  2  0  0  0  0
 11 12  1  0  0  0  0
 12 13  1  0  0  0  0
 13 14  1  0  0  0  0
 14 15  2  0  0  0  0
 15 16  1  0  0  0  0
 16 17  2  0  0  0  0
 17 18  1  0  0  0  0
 18 19  1  0  0  0  0
 19 20  2  0  0  0  0
 20 21  1  0  0  0  0
 21 22  2  0  0  0  0
 22 23  1  0  0  0  0
 23 24  2  0  0  0  0
 24 25  1  0  0  0  0
 25 26  2  0  0  0  0
 26 27  1  0  0  0  0
 27 28  2  0  0  0  0
 28 29  1  0  0  0  0
 29 30  2  0  0  0  0
 17 31  1  0  0  0  0
 31 32  2  0  0  0  0
 32 33  1  0  0  0  0
 33 34  1  0  0  0  0
 34 35  2  0  0  0  0
 35 36  1  0  0  0  0
 36 37  2  0  0  0  0
 37  5  1  0  0  0  0
 36  8  1  0  0  0  0
 35 10  1  0  0  0  0
 33 12  2  0  0  0  0
 32 14  1  0  0  0  0
 30 18  1  0  0  0  0
 24 19  1  0  0  0  0
 30 25  1  0  0  0  0
  6 38  1  0  0  0  0
  7 39  1  0  0  0  0
 15 40  1  0  0  0  0
 16 41  1  0  0  0  0
 20 42  1  0  0  0  0
 21 43  1  0  0  0  0
 22 44  1  0  0  0  0
 23 45  1  0  0  0  0
 26 46  1  0  0  0  0
 27 47  1  0  0  0  0
 28 48  1  0  0  0  0
 29 49  1  0  0  0  0
 31 50  1  0  0  0  0
 34 51  1  0  0  0  0
 37 52  1  0  0  0  0
M  END
