
  xtb     03022213293D
 energy: -96.904840212860 gnorm: 0.000088296861 xtb: 6.4.1 (afa7bdf)
 58 60  0     0  0            999 V2000
   -2.4383   -5.3906   -0.1845 C   0  0  0  0  0  0  0  0  0  0  0  0
   -2.2669   -4.0421    0.2369 O   0  0  0  0  0  0  0  0  0  0  0  0
   -2.8829   -3.1151   -0.4899 C   0  0  0  0  0  0  0  0  0  0  0  0
   -3.5759   -3.3461   -1.4460 O   0  0  0  0  0  0  0  0  0  0  0  0
   -2.5589   -1.7131    0.0143 C   0  0  0  0  0  0  0  0  0  0  0  0
   -3.5244   -0.7723   -0.4979 N   0  0  0  0  0  0  0  0  0  0  0  0
   -4.2506    0.0217    0.3311 C   0  0  0  0  0  0  0  0  0  0  0  0
   -4.0525    0.1086    1.5189 O   0  0  0  0  0  0  0  0  0  0  0  0
   -5.1730    0.6839   -0.3828 O   0  0  0  0  0  0  0  0  0  0  0  0
   -6.0408    1.6504    0.2587 C   0  0  0  0  0  0  0  0  0  0  0  0
   -6.9054    0.9652    1.3167 C   0  0  0  0  0  0  0  0  0  0  0  0
   -6.9100    2.1812   -0.8821 C   0  0  0  0  0  0  0  0  0  0  0  0
   -5.2143    2.7797    0.8728 C   0  0  0  0  0  0  0  0  0  0  0  0
   -1.1497   -1.3690   -0.4324 C   0  0  0  0  0  0  0  0  0  0  0  0
   -0.8392   -1.4434   -1.7961 C   0  0  0  0  0  0  0  0  0  0  0  0
    0.4182   -1.1353   -2.2803 C   0  0  0  0  0  0  0  0  0  0  0  0
    1.3603   -0.7458   -1.3478 C   0  0  0  0  0  0  0  0  0  0  0  0
    2.6537   -0.3866   -1.5083 O   0  0  0  0  0  0  0  0  0  0  0  0
    3.0902   -0.0957   -0.2421 C   0  0  0  0  0  0  0  0  0  0  0  0
    4.4621    0.3280   -0.0759 C   0  0  0  0  0  0  0  0  0  0  0  0
    5.3144    0.3051   -1.1729 C   0  0  0  0  0  0  0  0  0  0  0  0
    6.6439    0.6987   -1.0664 C   0  0  0  0  0  0  0  0  0  0  0  0
    7.3833    0.6288   -2.2105 O   0  0  0  0  0  0  0  0  0  0  0  0
    8.7355    1.0117   -2.1567 C   0  0  0  0  0  0  0  0  0  0  0  0
    7.1162    1.1242    0.1690 C   0  0  0  0  0  0  0  0  0  0  0  0
    6.2733    1.1554    1.2690 C   0  0  0  0  0  0  0  0  0  0  0  0
    4.9432    0.7639    1.1788 C   0  0  0  0  0  0  0  0  0  0  0  0
    4.0677    0.7767    2.2046 O   0  0  0  0  0  0  0  0  0  0  0  0
    4.4989    1.2262    3.4660 C   0  0  0  0  0  0  0  0  0  0  0  0
    2.1941   -0.2446    0.6799 N   0  0  0  0  0  0  0  0  0  0  0  0
    1.0631   -0.6611    0.0302 C   0  0  0  0  0  0  0  0  0  0  0  0
   -0.2051   -0.9779    0.4987 C   0  0  0  0  0  0  0  0  0  0  0  0
   -3.5000   -5.6398   -0.2331 H   0  0  0  0  0  0  0  0  0  0  0  0
   -1.9325   -6.0056    0.5546 H   0  0  0  0  0  0  0  0  0  0  0  0
   -1.9958   -5.5359   -1.1719 H   0  0  0  0  0  0  0  0  0  0  0  0
   -2.6180   -1.6846    1.1070 H   0  0  0  0  0  0  0  0  0  0  0  0
   -3.8431   -0.8980   -1.4466 H   0  0  0  0  0  0  0  0  0  0  0  0
   -6.2805    0.5816    2.1183 H   0  0  0  0  0  0  0  0  0  0  0  0
   -7.4545    0.1382    0.8714 H   0  0  0  0  0  0  0  0  0  0  0  0
   -7.6135    1.6782    1.7294 H   0  0  0  0  0  0  0  0  0  0  0  0
   -7.6088    2.9210   -0.5032 H   0  0  0  0  0  0  0  0  0  0  0  0
   -6.2848    2.6389   -1.6439 H   0  0  0  0  0  0  0  0  0  0  0  0
   -7.4662    1.3657   -1.3365 H   0  0  0  0  0  0  0  0  0  0  0  0
   -5.8766    3.5411    1.2752 H   0  0  0  0  0  0  0  0  0  0  0  0
   -4.5897    2.3937    1.6735 H   0  0  0  0  0  0  0  0  0  0  0  0
   -4.5759    3.2295    0.1153 H   0  0  0  0  0  0  0  0  0  0  0  0
   -1.6064   -1.7553   -2.4888 H   0  0  0  0  0  0  0  0  0  0  0  0
    0.6543   -1.1954   -3.3304 H   0  0  0  0  0  0  0  0  0  0  0  0
    4.9473   -0.0259   -2.1306 H   0  0  0  0  0  0  0  0  0  0  0  0
    8.8460    2.0625   -1.8691 H   0  0  0  0  0  0  0  0  0  0  0  0
    9.3054    0.3831   -1.4646 H   0  0  0  0  0  0  0  0  0  0  0  0
    9.1204    0.8740   -3.1658 H   0  0  0  0  0  0  0  0  0  0  0  0
    8.1401    1.4376    0.2978 H   0  0  0  0  0  0  0  0  0  0  0  0
    6.6785    1.4940    2.2092 H   0  0  0  0  0  0  0  0  0  0  0  0
    5.2974    0.5951    3.8701 H   0  0  0  0  0  0  0  0  0  0  0  0
    4.8398    2.2665    3.4309 H   0  0  0  0  0  0  0  0  0  0  0  0
    3.6246    1.1561    4.1105 H   0  0  0  0  0  0  0  0  0  0  0  0
   -0.4372   -0.9103    1.5483 H   0  0  0  0  0  0  0  0  0  0  0  0
  1  2  1  0  0  0  0
  2  3  1  0  0  0  0
  3  4  2  0  0  0  0
  3  5  1  0  0  0  0
  5  6  1  0  0  0  0
  6  7  1  0  0  0  0
  7  8  2  0  0  0  0
  7  9  1  0  0  0  0
  9 10  1  0  0  0  0
 10 11  1  0  0  0  0
 10 12  1  0  0  0  0
 10 13  1  0  0  0  0
  5 14  1  0  0  0  0
 14 15  2  0  0  0  0
 15 16  1  0  0  0  0
 16 17  2  0  0  0  0
 17 18  1  0  0  0  0
 18 19  1  0  0  0  0
 19 20  1  0  0  0  0
 20 21  2  0  0  0  0
 21 22  1  0  0  0  0
 22 23  1  0  0  0  0
 23 24  1  0  0  0  0
 22 25  2  0  0  0  0
 25 26  1  0  0  0  0
 26 27  2  0  0  0  0
 27 28  1  0  0  0  0
 28 29  1  0  0  0  0
 19 30  2  0  0  0  0
 30 31  1  0  0  0  0
 31 32  2  0  0  0  0
 32 14  1  0  0  0  0
 31 17  1  0  0  0  0
 27 20  1  0  0  0  0
  1 33  1  0  0  0  0
  1 34  1  0  0  0  0
  1 35  1  0  0  0  0
  5 36  1  0  0  0  0
  6 37  1  0  0  0  0
 11 38  1  0  0  0  0
 11 39  1  0  0  0  0
 11 40  1  0  0  0  0
 12 41  1  0  0  0  0
 12 42  1  0  0  0  0
 12 43  1  0  0  0  0
 13 44  1  0  0  0  0
 13 45  1  0  0  0  0
 13 46  1  0  0  0  0
 15 47  1  0  0  0  0
 16 48  1  0  0  0  0
 21 49  1  0  0  0  0
 24 50  1  0  0  0  0
 24 51  1  0  0  0  0
 24 52  1  0  0  0  0
 25 53  1  0  0  0  0
 26 54  1  0  0  0  0
 29 55  1  0  0  0  0
 29 56  1  0  0  0  0
 29 57  1  0  0  0  0
 32 58  1  0  0  0  0
M  END
