
  xtb     03022213293D
 energy: -65.296099040171 gnorm: 0.000270309729 xtb: 6.4.1 (afa7bdf)
 30 32  0     0  0            999 V2000
   -7.1577   -1.4972   -1.1747 O   0  0  0  0  0  0  0  0  0  0  0  0
   -6.8181   -0.7509   -0.2832 N   0  0  0  0  0  4  0  0  0  0  0  0
   -7.5649   -0.2533    0.5303 O   0  0  0  0  0  1  0  0  0  0  0  0
   -5.4129   -0.4301   -0.1815 C   0  0  0  0  0  0  0  0  0  0  0  0
   -4.9888    0.4731    0.7897 C   0  0  0  0  0  0  0  0  0  0  0  0
   -3.6515    0.7864    0.8806 C   0  0  0  0  0  0  0  0  0  0  0  0
   -2.7305    0.1763    0.0167 C   0  0  0  0  0  0  0  0  0  0  0  0
   -1.4242    0.5868    0.1205 N   0  0  0  0  0  0  0  0  0  0  0  0
   -0.5266   -0.1781   -0.3054 N   0  0  0  0  0  0  0  0  0  0  0  0
    0.7790    0.0628   -0.1888 C   0  0  0  0  0  0  0  0  0  0  0  0
    1.4167    0.4697    0.8603 N   0  0  0  0  0  0  0  0  0  0  0  0
    2.7534    0.3835    0.7115 C   0  0  0  0  0  0  0  0  0  0  0  0
    3.7023    0.7559    1.6688 C   0  0  0  0  0  0  0  0  0  0  0  0
    5.0363    0.6546    1.3594 C   0  0  0  0  0  0  0  0  0  0  0  0
    5.4370    0.1789    0.1049 C   0  0  0  0  0  0  0  0  0  0  0  0
    6.8440    0.0808   -0.1898 N   0  0  0  0  0  4  0  0  0  0  0  0
    7.6238    0.4338    0.6685 O   0  0  0  0  0  0  0  0  0  0  0  0
    7.1611   -0.3482   -1.2787 O   0  0  0  0  0  1  0  0  0  0  0  0
    4.5235   -0.2043   -0.8673 C   0  0  0  0  0  0  0  0  0  0  0  0
    3.1831   -0.1067   -0.5548 C   0  0  0  0  0  0  0  0  0  0  0  0
    1.8100   -0.5158   -1.5305 S   0  0  0  0  0  0  0  0  0  0  0  0
   -3.1741   -0.7303   -0.9597 C   0  0  0  0  0  0  0  0  0  0  0  0
   -4.5136   -1.0284   -1.0598 C   0  0  0  0  0  0  0  0  0  0  0  0
   -5.7194    0.9188    1.4475 H   0  0  0  0  0  0  0  0  0  0  0  0
   -3.2871    1.4781    1.6229 H   0  0  0  0  0  0  0  0  0  0  0  0
    3.3668    1.1213    2.6250 H   0  0  0  0  0  0  0  0  0  0  0  0
    5.7986    0.9362    2.0692 H   0  0  0  0  0  0  0  0  0  0  0  0
    4.8681   -0.5668   -1.8231 H   0  0  0  0  0  0  0  0  0  0  0  0
   -2.4506   -1.1644   -1.6327 H   0  0  0  0  0  0  0  0  0  0  0  0
   -4.8839   -1.7220   -1.7998 H   0  0  0  0  0  0  0  0  0  0  0  0
  1  2  2  0  0  0  0
  2  3  1  0  0  0  0
  2  4  1  0  0  0  0
  4  5  2  0  0  0  0
  5  6  1  0  0  0  0
  6  7  2  0  0  0  0
  7  8  1  0  0  0  0
  8  9  2  0  0  0  0
  9 10  1  0  0  0  0
 10 11  2  0  0  0  0
 11 12  1  0  0  0  0
 12 13  2  0  0  0  0
 13 14  1  0  0  0  0
 14 15  2  0  0  0  0
 15 16  1  0  0  0  0
 16 17  2  0  0  0  0
 16 18  1  0  0  0  0
 15 19  1  0  0  0  0
 19 20  2  0  0  0  0
 20 21  1  0  0  0  0
  7 22  1  0  0  0  0
 22 23  2  0  0  0  0
 23  4  1  0  0  0  0
 21 10  1  0  0  0  0
 20 12  1  0  0  0  0
  5 24  1  0  0  0  0
  6 25  1  0  0  0  0
 13 26  1  0  0  0  0
 14 27  1  0  0  0  0
 19 28  1  0  0  0  0
 22 29  1  0  0  0  0
 23 30  1  0  0  0  0
M  CHG  1   2   1
M  CHG  1   3  -1
M  CHG  1  16   1
M  CHG  1  18  -1
M  END
