
  xtb     03022213063D
 energy: -71.551685807963 gnorm: 0.000160303940 xtb: 6.4.1 (afa7bdf)
 43 45  0     0  0            999 V2000
    5.0360   -1.4121   -0.3302 C   0  0  0  0  0  0  0  0  0  0  0  0
    4.0024   -0.4025   -0.4333 N   0  0  0  0  0  0  0  0  0  0  0  0
    4.5130    0.8990   -0.0557 C   0  0  0  0  0  0  0  0  0  0  0  0
    2.8226   -0.7762    0.3256 C   0  0  0  0  0  0  0  0  0  0  0  0
    1.6033    0.0603   -0.0629 C   0  0  0  0  0  0  0  0  0  0  0  0
    0.3190   -0.5734    0.4790 C   0  0  0  0  0  0  0  0  0  0  0  0
   -0.8413    0.2064    0.0984 N   0  0  0  0  0  0  0  0  0  0  0  0
   -0.9266    1.5495    0.4780 C   0  0  0  0  0  0  0  0  0  0  0  0
   -0.2928    2.0272    1.6243 C   0  0  0  0  0  0  0  0  0  0  0  0
   -0.3800    3.3607    1.9835 C   0  0  0  0  0  0  0  0  0  0  0  0
   -1.1197    4.2473    1.2220 C   0  0  0  0  0  0  0  0  0  0  0  0
   -1.7778    3.7870    0.0953 C   0  0  0  0  0  0  0  0  0  0  0  0
   -1.6727    2.4577   -0.2747 C   0  0  0  0  0  0  0  0  0  0  0  0
   -2.4869    1.9284   -1.7605 S   0  0  0  0  0  0  0  0  0  0  0  0
   -2.8287    0.2610   -1.2927 C   0  0  0  0  0  0  0  0  0  0  0  0
   -3.9392   -0.3611   -1.8380 C   0  0  0  0  0  0  0  0  0  0  0  0
   -4.2131   -1.6853   -1.5504 C   0  0  0  0  0  0  0  0  0  0  0  0
   -3.3740   -2.3643   -0.6784 C   0  0  0  0  0  0  0  0  0  0  0  0
   -3.6862   -3.7954   -0.3558 C   0  0  0  0  0  0  0  0  0  0  0  0
   -4.9028   -3.9399    0.2031 F   0  0  0  0  0  0  0  0  0  0  0  0
   -3.6925   -4.5752   -1.4542 F   0  0  0  0  0  0  0  0  0  0  0  0
   -2.8140   -4.3568    0.4951 F   0  0  0  0  0  0  0  0  0  0  0  0
   -2.2740   -1.7415   -0.1069 C   0  0  0  0  0  0  0  0  0  0  0  0
   -1.9626   -0.4195   -0.4256 C   0  0  0  0  0  0  0  0  0  0  0  0
    5.8791   -1.1203   -0.9541 H   0  0  0  0  0  0  0  0  0  0  0  0
    5.3960   -1.5522    0.7015 H   0  0  0  0  0  0  0  0  0  0  0  0
    4.6493   -2.3622   -0.6958 H   0  0  0  0  0  0  0  0  0  0  0  0
    3.7635    1.6605   -0.2582 H   0  0  0  0  0  0  0  0  0  0  0  0
    4.7932    0.9506    1.0090 H   0  0  0  0  0  0  0  0  0  0  0  0
    5.3936    1.1203   -0.6561 H   0  0  0  0  0  0  0  0  0  0  0  0
    2.9954   -0.6972    1.4158 H   0  0  0  0  0  0  0  0  0  0  0  0
    2.6098   -1.8248    0.0989 H   0  0  0  0  0  0  0  0  0  0  0  0
    1.5470    0.1112   -1.1512 H   0  0  0  0  0  0  0  0  0  0  0  0
    1.7025    1.0763    0.3176 H   0  0  0  0  0  0  0  0  0  0  0  0
    0.2164   -1.5620    0.0303 H   0  0  0  0  0  0  0  0  0  0  0  0
    0.3863   -0.7015    1.5671 H   0  0  0  0  0  0  0  0  0  0  0  0
    0.2729    1.3532    2.2468 H   0  0  0  0  0  0  0  0  0  0  0  0
    0.1321    3.7030    2.8700 H   0  0  0  0  0  0  0  0  0  0  0  0
   -1.1874    5.2872    1.5001 H   0  0  0  0  0  0  0  0  0  0  0  0
   -2.3618    4.4550   -0.5186 H   0  0  0  0  0  0  0  0  0  0  0  0
   -4.5720    0.1965   -2.5101 H   0  0  0  0  0  0  0  0  0  0  0  0
   -5.0627   -2.1828   -1.9892 H   0  0  0  0  0  0  0  0  0  0  0  0
   -1.6642   -2.2922    0.5906 H   0  0  0  0  0  0  0  0  0  0  0  0
  1  2  1  0  0  0  0
  2  3  1  0  0  0  0
  2  4  1  0  0  0  0
  4  5  1  0  0  0  0
  5  6  1  0  0  0  0
  6  7  1  0  0  0  0
  7  8  1  0  0  0  0
  8  9  2  0  0  0  0
  9 10  1  0  0  0  0
 10 11  2  0  0  0  0
 11 12  1  0  0  0  0
 12 13  2  0  0  0  0
 13 14  1  0  0  0  0
 14 15  1  0  0  0  0
 15 16  2  0  0  0  0
 16 17  1  0  0  0  0
 17 18  2  0  0  0  0
 18 19  1  0  0  0  0
 19 20  1  0  0  0  0
 19 21  1  0  0  0  0
 19 22  1  0  0  0  0
 18 23  1  0  0  0  0
 23 24  2  0  0  0  0
 24  7  1  0  0  0  0
 13  8  1  0  0  0  0
 24 15  1  0  0  0  0
  1 25  1  0  0  0  0
  1 26  1  0  0  0  0
  1 27  1  0  0  0  0
  3 28  1  0  0  0  0
  3 29  1  0  0  0  0
  3 30  1  0  0  0  0
  4 31  1  0  0  0  0
  4 32  1  0  0  0  0
  5 33  1  0  0  0  0
  5 34  1  0  0  0  0
  6 35  1  0  0  0  0
  6 36  1  0  0  0  0
  9 37  1  0  0  0  0
 10 38  1  0  0  0  0
 11 39  1  0  0  0  0
 12 40  1  0  0  0  0
 16 41  1  0  0  0  0
 17 42  1  0  0  0  0
 23 43  1  0  0  0  0
M  END
