
  xtb     03022215263D
 energy: -65.933215341251 gnorm: 0.000185341860 xtb: 6.4.1 (afa7bdf)
 45 47  0     0  0            999 V2000
    6.0074   -1.3413   -1.2299 C   0  0  0  0  0  0  0  0  0  0  0  0
    5.2190   -0.8066   -0.0374 C   0  0  0  0  0  0  0  0  0  0  0  0
    3.9100   -1.4338    0.0353 N   0  0  0  0  0  0  0  0  0  0  0  0
    3.3548   -1.5737    1.3629 C   0  0  0  0  0  0  0  0  0  0  0  0
    2.7490   -0.2657    1.9157 C   0  0  0  0  0  0  0  0  0  0  0  0
    1.7323    0.2087    1.0009 N   0  0  0  0  0  0  0  0  0  0  0  0
    0.4032   -0.0578    1.1887 C   0  0  0  0  0  0  0  0  0  0  0  0
   -0.1496   -0.0800    2.4849 C   0  0  0  0  0  0  0  0  0  0  0  0
   -1.4857   -0.2992    2.6880 C   0  0  0  0  0  0  0  0  0  0  0  0
   -2.3673   -0.4629    1.6078 C   0  0  0  0  0  0  0  0  0  0  0  0
   -3.6777   -0.7238    1.9317 N   0  0  0  0  0  0  0  0  0  0  0  0
   -4.6435   -0.5838    1.1789 N   0  0  0  0  0  0  0  0  0  0  0  0
   -4.7489    0.0912   -0.0077 C   0  0  0  0  0  0  0  0  0  0  0  0
   -4.4371    1.4596   -0.0884 C   0  0  0  0  0  0  0  0  0  0  0  0
   -4.7473    2.1786   -1.2173 C   0  0  0  0  0  0  0  0  0  0  0  0
   -5.3636    1.5503   -2.3040 C   0  0  0  0  0  0  0  0  0  0  0  0
   -5.6557    2.2829   -3.4711 C   0  0  0  0  0  0  0  0  0  0  0  0
   -5.8860    2.8799   -4.4244 N   0  0  0  0  0  0  0  0  0  0  0  0
   -5.6873    0.1909   -2.2262 C   0  0  0  0  0  0  0  0  0  0  0  0
   -5.4010   -0.5233   -1.0881 C   0  0  0  0  0  0  0  0  0  0  0  0
   -1.8259   -0.4490    0.3135 C   0  0  0  0  0  0  0  0  0  0  0  0
   -0.4810   -0.2659    0.1134 C   0  0  0  0  0  0  0  0  0  0  0  0
    2.3038    0.4259   -0.3104 C   0  0  0  0  0  0  0  0  0  0  0  0
    2.9173   -0.8752   -0.8614 C   0  0  0  0  0  0  0  0  0  0  0  0
    7.0201   -0.9473   -1.2103 H   0  0  0  0  0  0  0  0  0  0  0  0
    6.0484   -2.4258   -1.1861 H   0  0  0  0  0  0  0  0  0  0  0  0
    5.5462   -1.0526   -2.1705 H   0  0  0  0  0  0  0  0  0  0  0  0
    5.7602   -1.0580    0.8776 H   0  0  0  0  0  0  0  0  0  0  0  0
    5.1643    0.2916   -0.1013 H   0  0  0  0  0  0  0  0  0  0  0  0
    4.1273   -1.9422    2.0397 H   0  0  0  0  0  0  0  0  0  0  0  0
    2.5569   -2.3232    1.3096 H   0  0  0  0  0  0  0  0  0  0  0  0
    3.5281    0.4997    2.0023 H   0  0  0  0  0  0  0  0  0  0  0  0
    2.3338   -0.4524    2.9029 H   0  0  0  0  0  0  0  0  0  0  0  0
    0.4797    0.0976    3.3430 H   0  0  0  0  0  0  0  0  0  0  0  0
   -1.8955   -0.3090    3.6861 H   0  0  0  0  0  0  0  0  0  0  0  0
   -3.9630    1.9391    0.7564 H   0  0  0  0  0  0  0  0  0  0  0  0
   -4.5061    3.2302   -1.2769 H   0  0  0  0  0  0  0  0  0  0  0  0
   -6.1687   -0.2888   -3.0660 H   0  0  0  0  0  0  0  0  0  0  0  0
   -5.6467   -1.5721   -1.0178 H   0  0  0  0  0  0  0  0  0  0  0  0
   -2.4634   -0.6412   -0.5378 H   0  0  0  0  0  0  0  0  0  0  0  0
   -0.1095   -0.3120   -0.8979 H   0  0  0  0  0  0  0  0  0  0  0  0
    1.5591    0.8317   -0.9923 H   0  0  0  0  0  0  0  0  0  0  0  0
    3.0937    1.1779   -0.1979 H   0  0  0  0  0  0  0  0  0  0  0  0
    2.1249   -1.6209   -0.9834 H   0  0  0  0  0  0  0  0  0  0  0  0
    3.3714   -0.6920   -1.8349 H   0  0  0  0  0  0  0  0  0  0  0  0
  1  2  1  0  0  0  0
  2  3  1  0  0  0  0
  3  4  1  0  0  0  0
  4  5  1  0  0  0  0
  5  6  1  0  0  0  0
  6  7  1  0  0  0  0
  7  8  2  0  0  0  0
  8  9  1  0  0  0  0
  9 10  2  0  0  0  0
 10 11  1  0  0  0  0
 11 12  2  0  0  0  0
 12 13  1  0  0  0  0
 13 14  2  0  0  0  0
 14 15  1  0  0  0  0
 15 16  2  0  0  0  0
 16 17  1  0  0  0  0
 17 18  3  0  0  0  0
 16 19  1  0  0  0  0
 19 20  2  0  0  0  0
 10 21  1  0  0  0  0
 21 22  2  0  0  0  0
  6 23  1  0  0  0  0
 23 24  1  0  0  0  0
 24  3  1  0  0  0  0
 22  7  1  0  0  0  0
 20 13  1  0  0  0  0
  1 25  1  0  0  0  0
  1 26  1  0  0  0  0
  1 27  1  0  0  0  0
  2 28  1  0  0  0  0
  2 29  1  0  0  0  0
  4 30  1  0  0  0  0
  4 31  1  0  0  0  0
  5 32  1  0  0  0  0
  5 33  1  0  0  0  0
  8 34  1  0  0  0  0
  9 35  1  0  0  0  0
 14 36  1  0  0  0  0
 15 37  1  0  0  0  0
 19 38  1  0  0  0  0
 20 39  1  0  0  0  0
 21 40  1  0  0  0  0
 22 41  1  0  0  0  0
 23 42  1  0  0  0  0
 23 43  1  0  0  0  0
 24 44  1  0  0  0  0
 24 45  1  0  0  0  0
M  END
