
  xtb     03022214423D
 energy: -64.969128094399 gnorm: 0.000077518537 xtb: 6.4.1 (afa7bdf)
 37 39  0     0  0            999 V2000
   -7.2906    0.5318    0.3008 C   0  0  0  0  0  0  0  0  0  0  0  0
   -6.1805    0.9943    1.0354 O   0  0  0  0  0  0  0  0  0  0  0  0
   -4.9368    0.6642    0.6203 C   0  0  0  0  0  0  0  0  0  0  0  0
   -4.6435   -0.1141   -0.4991 C   0  0  0  0  0  0  0  0  0  0  0  0
   -3.3341   -0.3898   -0.8322 C   0  0  0  0  0  0  0  0  0  0  0  0
   -2.2683    0.0963   -0.0667 C   0  0  0  0  0  0  0  0  0  0  0  0
   -0.8851   -0.1505   -0.3539 C   0  0  0  0  0  0  0  0  0  0  0  0
   -0.3129   -0.8503   -1.3724 C   0  0  0  0  0  0  0  0  0  0  0  0
   -1.0056   -1.5072   -2.4112 C   0  0  0  0  0  0  0  0  0  0  0  0
   -1.4977   -2.0637   -3.2870 N   0  0  0  0  0  0  0  0  0  0  0  0
    1.1260   -0.9604   -1.4482 C   0  0  0  0  0  0  0  0  0  0  0  0
    1.9501   -0.4446   -0.6014 N   0  0  0  0  0  0  0  0  0  0  0  0
    3.2491   -0.6936   -0.9066 C   0  0  0  0  0  0  0  0  0  0  0  0
    4.2983   -0.1745   -0.0390 C   0  0  0  0  0  0  0  0  0  0  0  0
    3.9425    0.4871    1.1370 C   0  0  0  0  0  0  0  0  0  0  0  0
    4.9058    0.9925    1.9861 C   0  0  0  0  0  0  0  0  0  0  0  0
    6.2451    0.8395    1.6623 C   0  0  0  0  0  0  0  0  0  0  0  0
    7.4595    1.4684    2.7189 Cl  0  0  0  0  0  0  0  0  0  0  0  0
    6.6216    0.1876    0.4980 C   0  0  0  0  0  0  0  0  0  0  0  0
    5.6513   -0.3154   -0.3461 C   0  0  0  0  0  0  0  0  0  0  0  0
    3.4160   -1.4415   -2.0467 C   0  0  0  0  0  0  0  0  0  0  0  0
    1.9111   -1.8436   -2.7569 S   0  0  0  0  0  0  0  0  0  0  0  0
   -2.5806    0.8783    1.0596 C   0  0  0  0  0  0  0  0  0  0  0  0
   -3.8806    1.1571    1.3964 C   0  0  0  0  0  0  0  0  0  0  0  0
   -7.3332   -0.5615    0.2851 H   0  0  0  0  0  0  0  0  0  0  0  0
   -8.1669    0.9191    0.8180 H   0  0  0  0  0  0  0  0  0  0  0  0
   -7.2784    0.9118   -0.7252 H   0  0  0  0  0  0  0  0  0  0  0  0
   -5.4316   -0.5110   -1.1190 H   0  0  0  0  0  0  0  0  0  0  0  0
   -3.1384   -0.9944   -1.7023 H   0  0  0  0  0  0  0  0  0  0  0  0
   -0.1796    0.2856    0.3424 H   0  0  0  0  0  0  0  0  0  0  0  0
    2.8959    0.5963    1.3723 H   0  0  0  0  0  0  0  0  0  0  0  0
    4.6252    1.5024    2.8944 H   0  0  0  0  0  0  0  0  0  0  0  0
    7.6673    0.0772    0.2566 H   0  0  0  0  0  0  0  0  0  0  0  0
    5.9540   -0.8170   -1.2517 H   0  0  0  0  0  0  0  0  0  0  0  0
    4.3233   -1.7809   -2.5019 H   0  0  0  0  0  0  0  0  0  0  0  0
   -1.7784    1.2669    1.6696 H   0  0  0  0  0  0  0  0  0  0  0  0
   -4.1194    1.7575    2.2600 H   0  0  0  0  0  0  0  0  0  0  0  0
  1  2  1  0  0  0  0
  2  3  1  0  0  0  0
  3  4  2  0  0  0  0
  4  5  1  0  0  0  0
  5  6  2  0  0  0  0
  6  7  1  0  0  0  0
  7  8  2  0  0  0  0
  8  9  1  0  0  0  0
  9 10  3  0  0  0  0
  8 11  1  0  0  0  0
 11 12  2  0  0  0  0
 12 13  1  0  0  0  0
 13 14  1  0  0  0  0
 14 15  2  0  0  0  0
 15 16  1  0  0  0  0
 16 17  2  0  0  0  0
 17 18  1  0  0  0  0
 17 19  1  0  0  0  0
 19 20  2  0  0  0  0
 13 21  2  0  0  0  0
 21 22  1  0  0  0  0
  6 23  1  0  0  0  0
 23 24  2  0  0  0  0
 24  3  1  0  0  0  0
 22 11  1  0  0  0  0
 20 14  1  0  0  0  0
  1 25  1  0  0  0  0
  1 26  1  0  0  0  0
  1 27  1  0  0  0  0
  4 28  1  0  0  0  0
  5 29  1  0  0  0  0
  7 30  1  0  0  0  0
 15 31  1  0  0  0  0
 16 32  1  0  0  0  0
 19 33  1  0  0  0  0
 20 34  1  0  0  0  0
 21 35  1  0  0  0  0
 23 36  1  0  0  0  0
 24 37  1  0  0  0  0
M  END
