
  xtb     03022212523D
 energy: -119.355501074761 gnorm: 0.000190315996 xtb: 6.4.1 (afa7bdf)
 81 87  0     0  0            999 V2000
    8.1065    1.5652   -0.7780 C   0  0  0  0  0  0  0  0  0  0  0  0
    7.6215    1.0414   -1.9894 O   0  0  0  0  0  0  0  0  0  0  0  0
    6.2925    0.7805   -2.1040 C   0  0  0  0  0  0  0  0  0  0  0  0
    5.8885    0.2332   -3.3316 C   0  0  0  0  0  0  0  0  0  0  0  0
    4.5689   -0.0517   -3.5606 C   0  0  0  0  0  0  0  0  0  0  0  0
    3.6007    0.1764   -2.5719 C   0  0  0  0  0  0  0  0  0  0  0  0
    4.0174    0.6987   -1.3243 C   0  0  0  0  0  0  0  0  0  0  0  0
    5.3565    1.0204   -1.1116 C   0  0  0  0  0  0  0  0  0  0  0  0
    3.0645    0.8908   -0.3472 N   0  0  0  0  0  0  0  0  0  0  0  0
    3.4628    1.3001    0.9564 C   0  0  0  0  0  0  0  0  0  0  0  0
    3.1239    2.5681    1.4065 C   0  0  0  0  0  0  0  0  0  0  0  0
    3.5139    2.9853    2.6664 C   0  0  0  0  0  0  0  0  0  0  0  0
    4.2536    2.1377    3.4743 C   0  0  0  0  0  0  0  0  0  0  0  0
    4.6040    0.8789    3.0215 C   0  0  0  0  0  0  0  0  0  0  0  0
    4.2102    0.4354    1.7630 C   0  0  0  0  0  0  0  0  0  0  0  0
    4.6148   -0.8938    1.2706 C   0  0  0  0  0  0  0  0  0  0  0  0
    5.9559   -1.2634    1.3131 C   0  0  0  0  0  0  0  0  0  0  0  0
    6.3654   -2.4793    0.7996 C   0  0  0  0  0  0  0  0  0  0  0  0
    5.4380   -3.3456    0.2460 C   0  0  0  0  0  0  0  0  0  0  0  0
    4.0980   -2.9981    0.2257 C   0  0  0  0  0  0  0  0  0  0  0  0
    3.6859   -1.7808    0.7353 C   0  0  0  0  0  0  0  0  0  0  0  0
    1.7386    0.6048   -0.5893 C   0  0  0  0  0  0  0  0  0  0  0  0
    0.7700    0.7266    0.3692 C   0  0  0  0  0  0  0  0  0  0  0  0
   -0.5853    0.4329    0.0903 C   0  0  0  0  0  0  0  0  0  0  0  0
   -0.9151   -0.0105   -1.2465 C   0  0  0  0  0  0  0  0  0  0  0  0
    0.0450   -0.1672   -2.1975 C   0  0  0  0  0  0  0  0  0  0  0  0
    1.4066    0.1141   -1.9153 C   0  0  0  0  0  0  0  0  0  0  0  0
    2.3040   -0.1005   -2.8434 N   0  0  0  0  0  0  0  0  0  0  0  0
   -2.2020   -0.2879   -1.5580 O   0  0  0  0  0  0  0  0  0  0  0  0
   -3.1630   -0.1493   -0.5901 C   0  0  0  0  0  0  0  0  0  0  0  0
   -2.7896    0.2731    0.7000 C   0  0  0  0  0  0  0  0  0  0  0  0
   -3.7644    0.4096    1.6932 C   0  0  0  0  0  0  0  0  0  0  0  0
   -5.0868    0.1360    1.4208 C   0  0  0  0  0  0  0  0  0  0  0  0
   -6.1890    0.2645    2.4614 C   0  0  0  0  0  0  0  0  0  0  0  0
   -6.8617   -1.1021    2.6528 C   0  0  0  0  0  0  0  0  0  0  0  0
   -7.2226    1.2908    1.9771 C   0  0  0  0  0  0  0  0  0  0  0  0
   -5.6559    0.7284    3.8192 C   0  0  0  0  0  0  0  0  0  0  0  0
   -5.4218   -0.2778    0.1279 C   0  0  0  0  0  0  0  0  0  0  0  0
   -4.4992   -0.4308   -0.8954 C   0  0  0  0  0  0  0  0  0  0  0  0
   -4.9042   -0.8828   -2.2929 C   0  0  0  0  0  0  0  0  0  0  0  0
   -4.5278    0.2063   -3.3075 C   0  0  0  0  0  0  0  0  0  0  0  0
   -4.1829   -2.1950   -2.6322 C   0  0  0  0  0  0  0  0  0  0  0  0
   -6.4108   -1.1337   -2.4157 C   0  0  0  0  0  0  0  0  0  0  0  0
   -1.4957    0.5620    1.0259 N   0  0  0  0  0  0  0  0  0  0  0  0
    7.9103    0.8857    0.0575 H   0  0  0  0  0  0  0  0  0  0  0  0
    9.1818    1.6716   -0.9123 H   0  0  0  0  0  0  0  0  0  0  0  0
    7.6711    2.5457   -0.5588 H   0  0  0  0  0  0  0  0  0  0  0  0
    6.6418    0.0568   -4.0821 H   0  0  0  0  0  0  0  0  0  0  0  0
    4.2373   -0.4572   -4.5025 H   0  0  0  0  0  0  0  0  0  0  0  0
    5.6468    1.4585   -0.1705 H   0  0  0  0  0  0  0  0  0  0  0  0
    2.5542    3.2204    0.7613 H   0  0  0  0  0  0  0  0  0  0  0  0
    3.2433    3.9707    3.0135 H   0  0  0  0  0  0  0  0  0  0  0  0
    4.5597    2.4590    4.4584 H   0  0  0  0  0  0  0  0  0  0  0  0
    5.1761    0.2147    3.6527 H   0  0  0  0  0  0  0  0  0  0  0  0
    6.6806   -0.5831    1.7393 H   0  0  0  0  0  0  0  0  0  0  0  0
    7.4108   -2.7503    0.8278 H   0  0  0  0  0  0  0  0  0  0  0  0
    5.7586   -4.2920   -0.1630 H   0  0  0  0  0  0  0  0  0  0  0  0
    3.3686   -3.6760   -0.1919 H   0  0  0  0  0  0  0  0  0  0  0  0
    2.6361   -1.5258    0.7343 H   0  0  0  0  0  0  0  0  0  0  0  0
    0.9983    1.0498    1.3722 H   0  0  0  0  0  0  0  0  0  0  0  0
   -0.2042   -0.5157   -3.1864 H   0  0  0  0  0  0  0  0  0  0  0  0
   -3.4183    0.7348    2.6586 H   0  0  0  0  0  0  0  0  0  0  0  0
   -6.1277   -1.8393    2.9710 H   0  0  0  0  0  0  0  0  0  0  0  0
   -7.3199   -1.4529    1.7324 H   0  0  0  0  0  0  0  0  0  0  0  0
   -7.6363   -1.0348    3.4139 H   0  0  0  0  0  0  0  0  0  0  0  0
   -7.6885    0.9787    1.0466 H   0  0  0  0  0  0  0  0  0  0  0  0
   -8.0046    1.4152    2.7234 H   0  0  0  0  0  0  0  0  0  0  0  0
   -6.7450    2.2544    1.8131 H   0  0  0  0  0  0  0  0  0  0  0  0
   -6.4794    0.8037    4.5267 H   0  0  0  0  0  0  0  0  0  0  0  0
   -5.1882    1.7066    3.7403 H   0  0  0  0  0  0  0  0  0  0  0  0
   -4.9334    0.0200    4.2167 H   0  0  0  0  0  0  0  0  0  0  0  0
   -6.4556   -0.4888   -0.0799 H   0  0  0  0  0  0  0  0  0  0  0  0
   -4.8514   -0.0867   -4.3041 H   0  0  0  0  0  0  0  0  0  0  0  0
   -3.4552    0.3678   -3.3317 H   0  0  0  0  0  0  0  0  0  0  0  0
   -5.0147    1.1447   -3.0481 H   0  0  0  0  0  0  0  0  0  0  0  0
   -4.4267   -2.9582   -1.8953 H   0  0  0  0  0  0  0  0  0  0  0  0
   -3.1065   -2.0597   -2.6474 H   0  0  0  0  0  0  0  0  0  0  0  0
   -4.4966   -2.5483   -3.6122 H   0  0  0  0  0  0  0  0  0  0  0  0
   -6.7364   -1.9222   -1.7409 H   0  0  0  0  0  0  0  0  0  0  0  0
   -6.9797   -0.2287   -2.2145 H   0  0  0  0  0  0  0  0  0  0  0  0
   -6.6372   -1.4504   -3.4319 H   0  0  0  0  0  0  0  0  0  0  0  0
  1  2  1  0  0  0  0
  2  3  1  0  0  0  0
  3  4  2  0  0  0  0
  4  5  1  0  0  0  0
  5  6  2  0  0  0  0
  6  7  1  0  0  0  0
  7  8  2  0  0  0  0
  7  9  1  0  0  0  0
  9 10  1  0  0  0  0
 10 11  2  0  0  0  0
 11 12  1  0  0  0  0
 12 13  2  0  0  0  0
 13 14  1  0  0  0  0
 14 15  2  0  0  0  0
 15 16  1  0  0  0  0
 16 17  2  0  0  0  0
 17 18  1  0  0  0  0
 18 19  2  0  0  0  0
 19 20  1  0  0  0  0
 20 21  2  0  0  0  0
  9 22  1  0  0  0  0
 22 23  2  0  0  0  0
 23 24  1  0  0  0  0
 24 25  1  0  0  0  0
 25 26  2  0  0  0  0
 26 27  1  0  0  0  0
 27 28  2  0  0  0  0
 25 29  1  0  0  0  0
 29 30  1  0  0  0  0
 30 31  2  0  0  0  0
 31 32  1  0  0  0  0
 32 33  2  0  0  0  0
 33 34  1  0  0  0  0
 34 35  1  0  0  0  0
 34 36  1  0  0  0  0
 34 37  1  0  0  0  0
 33 38  1  0  0  0  0
 38 39  2  0  0  0  0
 39 40  1  0  0  0  0
 40 41  1  0  0  0  0
 40 42  1  0  0  0  0
 40 43  1  0  0  0  0
 31 44  1  0  0  0  0
  8  3  1  0  0  0  0
 15 10  1  0  0  0  0
 21 16  1  0  0  0  0
 27 22  1  0  0  0  0
 39 30  1  0  0  0  0
 28  6  1  0  0  0  0
 44 24  2  0  0  0  0
  1 45  1  0  0  0  0
  1 46  1  0  0  0  0
  1 47  1  0  0  0  0
  4 48  1  0  0  0  0
  5 49  1  0  0  0  0
  8 50  1  0  0  0  0
 11 51  1  0  0  0  0
 12 52  1  0  0  0  0
 13 53  1  0  0  0  0
 14 54  1  0  0  0  0
 17 55  1  0  0  0  0
 18 56  1  0  0  0  0
 19 57  1  0  0  0  0
 20 58  1  0  0  0  0
 21 59  1  0  0  0  0
 23 60  1  0  0  0  0
 26 61  1  0  0  0  0
 32 62  1  0  0  0  0
 35 63  1  0  0  0  0
 35 64  1  0  0  0  0
 35 65  1  0  0  0  0
 36 66  1  0  0  0  0
 36 67  1  0  0  0  0
 36 68  1  0  0  0  0
 37 69  1  0  0  0  0
 37 70  1  0  0  0  0
 37 71  1  0  0  0  0
 38 72  1  0  0  0  0
 41 73  1  0  0  0  0
 41 74  1  0  0  0  0
 41 75  1  0  0  0  0
 42 76  1  0  0  0  0
 42 77  1  0  0  0  0
 42 78  1  0  0  0  0
 43 79  1  0  0  0  0
 43 80  1  0  0  0  0
 43 81  1  0  0  0  0
M  END
