
  xtb     03022214223D
 energy: -50.237309474158 gnorm: 0.000097655785 xtb: 6.4.1 (afa7bdf)
 30 32  0     0  0            999 V2000
    7.3356    0.1012    0.3975 Cl  0  0  0  0  0  0  0  0  0  0  0  0
    5.6106    0.0750    0.3184 C   0  0  0  0  0  0  0  0  0  0  0  0
    4.9088   -0.9536    0.9290 C   0  0  0  0  0  0  0  0  0  0  0  0
    3.5308   -0.9655    0.8601 C   0  0  0  0  0  0  0  0  0  0  0  0
    2.8253    0.0382    0.1873 C   0  0  0  0  0  0  0  0  0  0  0  0
    1.3803   -0.0294    0.1499 C   0  0  0  0  0  0  0  0  0  0  0  0
    0.5450    0.8376   -0.4438 C   0  0  0  0  0  0  0  0  0  0  0  0
   -0.8928    0.6754   -0.4211 C   0  0  0  0  0  0  0  0  0  0  0  0
   -1.7297    1.6285   -1.0692 C   0  0  0  0  0  0  0  0  0  0  0  0
   -3.0266    1.5390   -1.0845 N   0  0  0  0  0  0  0  0  0  0  0  0
   -3.5831    0.4825   -0.4483 C   0  0  0  0  0  0  0  0  0  0  0  0
   -4.9813    0.3296   -0.4292 C   0  0  0  0  0  0  0  0  0  0  0  0
   -5.5377   -0.7407    0.2157 C   0  0  0  0  0  0  0  0  0  0  0  0
   -4.7280   -1.6917    0.8610 C   0  0  0  0  0  0  0  0  0  0  0  0
   -3.3666   -1.5708    0.8601 C   0  0  0  0  0  0  0  0  0  0  0  0
   -2.7599   -0.4790    0.2044 C   0  0  0  0  0  0  0  0  0  0  0  0
   -1.4207   -0.3602    0.2035 N   0  0  0  0  0  0  0  0  0  0  0  0
    3.5608    1.0622   -0.4185 C   0  0  0  0  0  0  0  0  0  0  0  0
    4.9386    1.0842   -0.3561 C   0  0  0  0  0  0  0  0  0  0  0  0
    5.4409   -1.7335    1.4509 H   0  0  0  0  0  0  0  0  0  0  0  0
    2.9837   -1.7663    1.3354 H   0  0  0  0  0  0  0  0  0  0  0  0
    0.9309   -0.8730    0.6576 H   0  0  0  0  0  0  0  0  0  0  0  0
    0.9051    1.7081   -0.9734 H   0  0  0  0  0  0  0  0  0  0  0  0
   -1.2981    2.4792   -1.5824 H   0  0  0  0  0  0  0  0  0  0  0  0
   -5.5830    1.0714   -0.9310 H   0  0  0  0  0  0  0  0  0  0  0  0
   -6.6105   -0.8643    0.2343 H   0  0  0  0  0  0  0  0  0  0  0  0
   -5.1967   -2.5261    1.3619 H   0  0  0  0  0  0  0  0  0  0  0  0
   -2.7290   -2.2903    1.3497 H   0  0  0  0  0  0  0  0  0  0  0  0
    3.0517    1.8531   -0.9461 H   0  0  0  0  0  0  0  0  0  0  0  0
    5.4959    1.8790   -0.8270 H   0  0  0  0  0  0  0  0  0  0  0  0
  1  2  1  0  0  0  0
  2  3  2  0  0  0  0
  3  4  1  0  0  0  0
  4  5  2  0  0  0  0
  5  6  1  0  0  0  0
  6  7  2  0  0  0  0
  7  8  1  0  0  0  0
  8  9  2  0  0  0  0
  9 10  1  0  0  0  0
 10 11  2  0  0  0  0
 11 12  1  0  0  0  0
 12 13  2  0  0  0  0
 13 14  1  0  0  0  0
 14 15  2  0  0  0  0
 15 16  1  0  0  0  0
 16 17  2  0  0  0  0
  5 18  1  0  0  0  0
 18 19  2  0  0  0  0
 19  2  1  0  0  0  0
 17  8  1  0  0  0  0
 16 11  1  0  0  0  0
  3 20  1  0  0  0  0
  4 21  1  0  0  0  0
  6 22  1  0  0  0  0
  7 23  1  0  0  0  0
  9 24  1  0  0  0  0
 12 25  1  0  0  0  0
 13 26  1  0  0  0  0
 14 27  1  0  0  0  0
 15 28  1  0  0  0  0
 18 29  1  0  0  0  0
 19 30  1  0  0  0  0
M  END
