
  xtb     03022214193D
 energy: -32.287327749069 gnorm: 0.000208763177 xtb: 6.4.1 (afa7bdf)
 22 22  0     0  0            999 V2000
   -0.7183   -1.3346    3.6179 C   0  0  0  0  0  0  0  0  0  0  0  0
    0.0898   -1.5829    2.4545 N   0  0  0  0  0  0  0  0  0  0  0  0
    0.0486   -0.8470    1.3115 C   0  0  0  0  0  0  0  0  0  0  0  0
    0.8828   -1.1914    0.2366 C   0  0  0  0  0  0  0  0  0  0  0  0
    0.8698   -0.4711   -0.9311 C   0  0  0  0  0  0  0  0  0  0  0  0
    0.0227    0.6340   -1.0916 C   0  0  0  0  0  0  0  0  0  0  0  0
   -0.0319    1.4246   -2.2943 C   0  0  0  0  0  0  0  0  0  0  0  0
    0.6900    1.2389   -3.4153 C   0  0  0  0  0  0  0  0  0  0  0  0
    0.5514    2.0757   -4.5291 C   0  0  0  0  0  0  0  0  0  0  0  0
    0.4445    2.7576   -5.4482 N   0  0  0  0  0  0  0  0  0  0  0  0
   -0.8068    0.9721   -0.0156 C   0  0  0  0  0  0  0  0  0  0  0  0
   -0.8009    0.2563    1.1586 C   0  0  0  0  0  0  0  0  0  0  0  0
   -0.4816   -2.0735    4.3793 H   0  0  0  0  0  0  0  0  0  0  0  0
   -0.5228   -0.3392    4.0284 H   0  0  0  0  0  0  0  0  0  0  0  0
   -1.7846   -1.4091    3.3822 H   0  0  0  0  0  0  0  0  0  0  0  0
    0.7240   -2.3625    2.4761 H   0  0  0  0  0  0  0  0  0  0  0  0
    1.5440   -2.0408    0.3401 H   0  0  0  0  0  0  0  0  0  0  0  0
    1.5271   -0.7689   -1.7337 H   0  0  0  0  0  0  0  0  0  0  0  0
   -0.7336    2.2508   -2.2759 H   0  0  0  0  0  0  0  0  0  0  0  0
    1.4120    0.4412   -3.5219 H   0  0  0  0  0  0  0  0  0  0  0  0
   -1.4705    1.8200   -0.1116 H   0  0  0  0  0  0  0  0  0  0  0  0
   -1.4557    0.5499    1.9635 H   0  0  0  0  0  0  0  0  0  0  0  0
  1  2  1  0  0  0  0
  2  3  1  0  0  0  0
  3  4  2  0  0  0  0
  4  5  1  0  0  0  0
  5  6  2  0  0  0  0
  6  7  1  0  0  0  0
  7  8  2  0  0  0  0
  8  9  1  0  0  0  0
  9 10  3  0  0  0  0
  6 11  1  0  0  0  0
 11 12  2  0  0  0  0
 12  3  1  0  0  0  0
  1 13  1  0  0  0  0
  1 14  1  0  0  0  0
  1 15  1  0  0  0  0
  2 16  1  0  0  0  0
  4 17  1  0  0  0  0
  5 18  1  0  0  0  0
  7 19  1  0  0  0  0
  8 20  1  0  0  0  0
 11 21  1  0  0  0  0
 12 22  1  0  0  0  0
M  END
