
  xtb     03022216103D
 energy: -74.860685041857 gnorm: 0.000290163090 xtb: 6.4.1 (afa7bdf)
 47 51  0     0  0            999 V2000
    5.5304   -0.4590   -0.1439 C   0  0  0  0  0  0  0  0  0  0  0  0
    4.3659    0.4617   -0.0531 C   0  0  0  0  0  0  0  0  0  0  0  0
    4.3688    1.8466   -0.1095 C   0  0  0  0  0  0  0  0  0  0  0  0
    3.0491    2.2865    0.0190 C   0  0  0  0  0  0  0  0  0  0  0  0
    2.5393    3.6770    0.0344 C   0  0  0  0  0  0  0  0  0  0  0  0
    2.2409    1.2197    0.1455 N   0  0  0  0  0  4  0  0  0  0  0  0
    3.0152    0.0795    0.1106 C   0  0  0  0  0  0  0  0  0  0  0  0
    2.4272   -1.1771    0.2176 C   0  0  0  0  0  0  0  0  0  0  0  0
    1.0653   -1.3193    0.3418 C   0  0  0  0  0  0  0  0  0  0  0  0
    0.2762   -2.5083    0.4159 C   0  0  0  0  0  0  0  0  0  0  0  0
    0.6085   -3.8581    0.4799 C   0  0  0  0  0  0  0  0  0  0  0  0
   -0.4110   -4.7736    0.6242 C   0  0  0  0  0  0  0  0  0  0  0  0
   -1.7426   -4.3617    0.7311 C   0  0  0  0  0  0  0  0  0  0  0  0
   -2.0886   -3.0302    0.6591 C   0  0  0  0  0  0  0  0  0  0  0  0
   -1.0759   -2.0919    0.4631 C   0  0  0  0  0  0  0  0  0  0  0  0
   -1.0729   -0.6581    0.4019 C   0  0  0  0  0  0  0  0  0  0  0  0
   -2.2165    0.1908    0.3671 C   0  0  0  0  0  0  0  0  0  0  0  0
   -2.2459    1.4268    0.9610 N   0  0  0  0  0  0  0  0  0  0  0  0
   -3.4359    2.0217    0.7510 C   0  0  0  0  0  0  0  0  0  0  0  0
   -3.7454    3.3657    1.3015 C   0  0  0  0  0  0  0  0  0  0  0  0
   -4.2026    1.1692   -0.0182 C   0  0  0  0  0  0  0  0  0  0  0  0
   -3.4522    0.0129   -0.2692 C   0  0  0  0  0  0  0  0  0  0  0  0
   -3.8881   -1.0896   -1.1730 C   0  0  0  0  0  0  0  0  0  0  0  0
    0.2048   -0.2357    0.3704 N   0  0  0  0  0  0  0  0  0  0  0  0
    0.7295    1.2261    0.3775 B   0  0  0  0  0  4  0  0  0  0  0  0
    0.0742    1.9723   -0.5843 F   0  0  0  0  0  0  0  0  0  0  0  0
    0.4607    1.7985    1.6323 F   0  0  0  0  0  0  0  0  0  0  0  0
    5.6124   -1.0637    0.7591 H   0  0  0  0  0  0  0  0  0  0  0  0
    6.4492    0.1079   -0.2687 H   0  0  0  0  0  0  0  0  0  0  0  0
    5.4191   -1.1357   -0.9910 H   0  0  0  0  0  0  0  0  0  0  0  0
    5.2248    2.4819   -0.2301 H   0  0  0  0  0  0  0  0  0  0  0  0
    2.0332    3.8733    0.9793 H   0  0  0  0  0  0  0  0  0  0  0  0
    3.3549    4.3828   -0.0941 H   0  0  0  0  0  0  0  0  0  0  0  0
    1.8060    3.8143   -0.7591 H   0  0  0  0  0  0  0  0  0  0  0  0
    3.0486   -2.0577    0.1822 H   0  0  0  0  0  0  0  0  0  0  0  0
    1.6390   -4.1763    0.4324 H   0  0  0  0  0  0  0  0  0  0  0  0
   -0.1812   -5.8276    0.6790 H   0  0  0  0  0  0  0  0  0  0  0  0
   -2.5106   -5.1057    0.8823 H   0  0  0  0  0  0  0  0  0  0  0  0
   -3.1132   -2.7192    0.7769 H   0  0  0  0  0  0  0  0  0  0  0  0
   -1.4745    1.8342    1.4646 H   0  0  0  0  0  0  0  0  0  0  0  0
   -3.6082    3.3790    2.3828 H   0  0  0  0  0  0  0  0  0  0  0  0
   -4.7719    3.6378    1.0729 H   0  0  0  0  0  0  0  0  0  0  0  0
   -3.0787    4.1121    0.8695 H   0  0  0  0  0  0  0  0  0  0  0  0
   -5.1954    1.3620   -0.3750 H   0  0  0  0  0  0  0  0  0  0  0  0
   -3.0524   -1.7229   -1.4567 H   0  0  0  0  0  0  0  0  0  0  0  0
   -4.6537   -1.7058   -0.7004 H   0  0  0  0  0  0  0  0  0  0  0  0
   -4.3258   -0.6634   -2.0748 H   0  0  0  0  0  0  0  0  0  0  0  0
  1  2  1  0  0  0  0
  2  3  2  0  0  0  0
  3  4  1  0  0  0  0
  4  5  1  0  0  0  0
  4  6  2  0  0  0  0
  6  7  1  0  0  0  0
  7  8  2  0  0  0  0
  8  9  1  0  0  0  0
  9 10  2  0  0  0  0
 10 11  1  0  0  0  0
 11 12  2  0  0  0  0
 12 13  1  0  0  0  0
 13 14  2  0  0  0  0
 14 15  1  0  0  0  0
 15 16  2  0  0  0  0
 16 17  1  0  0  0  0
 17 18  1  0  0  0  0
 18 19  1  0  0  0  0
 19 20  1  0  0  0  0
 19 21  2  0  0  0  0
 21 22  1  0  0  0  0
 22 23  1  0  0  0  0
 16 24  1  0  0  0  0
 24 25  1  0  0  0  0
 25 26  1  0  0  0  0
 25 27  1  0  0  0  0
  7  2  1  0  0  0  0
 24  9  1  0  0  0  0
 25  6  1  0  0  0  0
 15 10  1  0  0  0  0
 22 17  2  0  0  0  0
  1 28  1  0  0  0  0
  1 29  1  0  0  0  0
  1 30  1  0  0  0  0
  3 31  1  0  0  0  0
  5 32  1  0  0  0  0
  5 33  1  0  0  0  0
  5 34  1  0  0  0  0
  8 35  1  0  0  0  0
 11 36  1  0  0  0  0
 12 37  1  0  0  0  0
 13 38  1  0  0  0  0
 14 39  1  0  0  0  0
 18 40  1  0  0  0  0
 20 41  1  0  0  0  0
 20 42  1  0  0  0  0
 20 43  1  0  0  0  0
 21 44  1  0  0  0  0
 23 45  1  0  0  0  0
 23 46  1  0  0  0  0
 23 47  1  0  0  0  0
M  CHG  1   6   1
M  CHG  1  25  -1
M  END
