
  xtb     03022216023D
 energy: -45.961468400227 gnorm: 0.000247020404 xtb: 6.4.1 (afa7bdf)
 26 28  0     0  0            999 V2000
   -0.3289    3.0767    0.5930 C   0  0  0  0  0  0  0  0  0  0  0  0
   -0.8475    1.7073    0.3820 C   0  0  0  0  0  0  0  0  0  0  0  0
   -2.1618    1.4016    0.4259 N   0  0  0  0  0  0  0  0  0  0  0  0
   -2.3482    0.0528    0.1925 C   0  0  0  0  0  0  0  0  0  0  0  0
   -3.5143   -0.6913    0.1442 C   0  0  0  0  0  0  0  0  0  0  0  0
   -3.3903   -2.0446   -0.1135 C   0  0  0  0  0  0  0  0  0  0  0  0
   -2.1435   -2.6335   -0.3157 C   0  0  0  0  0  0  0  0  0  0  0  0
   -0.9777   -1.8926   -0.2683 C   0  0  0  0  0  0  0  0  0  0  0  0
   -1.0819   -0.5318   -0.0112 C   0  0  0  0  0  0  0  0  0  0  0  0
   -0.1200    0.5431    0.1124 C   0  0  0  0  0  0  0  0  0  0  0  0
    1.2168    0.5614    0.0113 N   0  0  0  0  0  0  0  0  0  0  0  0
    1.8089   -0.5484   -0.2441 N   0  0  0  0  0  0  0  0  0  0  0  0
    3.1288   -0.5288   -0.3440 C   0  0  0  0  0  0  0  0  0  0  0  0
    3.8462   -1.5712   -0.6057 N   0  0  0  0  0  0  0  0  0  0  0  0
    5.1402   -1.3507   -0.6642 N   0  0  0  0  0  0  0  0  0  0  0  0
    5.4705   -0.1238   -0.4478 C   0  0  0  0  0  0  0  0  0  0  0  0
    4.1656    0.9562   -0.1322 S   0  0  0  0  0  0  0  0  0  0  0  0
   -0.6118    3.4496    1.5775 H   0  0  0  0  0  0  0  0  0  0  0  0
    0.7542    3.0576    0.5151 H   0  0  0  0  0  0  0  0  0  0  0  0
   -0.7301    3.7610   -0.1550 H   0  0  0  0  0  0  0  0  0  0  0  0
   -2.9019    2.0624    0.6033 H   0  0  0  0  0  0  0  0  0  0  0  0
   -4.4803   -0.2349    0.3011 H   0  0  0  0  0  0  0  0  0  0  0  0
   -4.2781   -2.6573   -0.1589 H   0  0  0  0  0  0  0  0  0  0  0  0
   -2.0918   -3.6934   -0.5138 H   0  0  0  0  0  0  0  0  0  0  0  0
   -0.0104   -2.3422   -0.4241 H   0  0  0  0  0  0  0  0  0  0  0  0
    6.4875    0.2147   -0.4606 H   0  0  0  0  0  0  0  0  0  0  0  0
  1  2  1  0  0  0  0
  2  3  1  0  0  0  0
  3  4  1  0  0  0  0
  4  5  2  0  0  0  0
  5  6  1  0  0  0  0
  6  7  2  0  0  0  0
  7  8  1  0  0  0  0
  8  9  2  0  0  0  0
  9 10  1  0  0  0  0
 10 11  1  0  0  0  0
 11 12  2  0  0  0  0
 12 13  1  0  0  0  0
 13 14  2  0  0  0  0
 14 15  1  0  0  0  0
 15 16  2  0  0  0  0
 16 17  1  0  0  0  0
 10  2  2  0  0  0  0
 17 13  1  0  0  0  0
  9  4  1  0  0  0  0
  1 18  1  0  0  0  0
  1 19  1  0  0  0  0
  1 20  1  0  0  0  0
  3 21  1  0  0  0  0
  5 22  1  0  0  0  0
  6 23  1  0  0  0  0
  7 24  1  0  0  0  0
  8 25  1  0  0  0  0
 16 26  1  0  0  0  0
M  END
