
  xtb     03022212033D
 energy: -42.695150096942 gnorm: 0.000081926335 xtb: 6.4.1 (afa7bdf)
 31 33  0     0  0            999 V2000
   -0.1653    2.3350   -0.9523 C   0  0  0  0  0  0  0  0  0  0  0  0
   -0.0479    0.9823   -0.4505 N   0  0  0  0  0  0  0  0  0  0  0  0
   -1.2654    0.3802   -0.0871 C   0  0  0  0  0  0  0  0  0  0  0  0
   -2.2503    1.1244    0.5608 C   0  0  0  0  0  0  0  0  0  0  0  0
   -3.4746    0.5600    0.8650 C   0  0  0  0  0  0  0  0  0  0  0  0
   -3.7392   -0.7540    0.5216 C   0  0  0  0  0  0  0  0  0  0  0  0
   -2.7691   -1.4951   -0.1297 C   0  0  0  0  0  0  0  0  0  0  0  0
   -1.5412   -0.9395   -0.4496 C   0  0  0  0  0  0  0  0  0  0  0  0
   -0.4688   -1.7338   -1.1189 C   0  0  0  0  0  0  0  0  0  0  0  0
    0.6466   -1.9948   -0.1052 C   0  0  0  0  0  0  0  0  0  0  0  0
    1.5531   -0.8168    0.1433 C   0  0  0  0  0  0  0  0  0  0  0  0
    2.8424   -1.1312    0.5574 C   0  0  0  0  0  0  0  0  0  0  0  0
    3.8034   -0.1733    0.8118 C   0  0  0  0  0  0  0  0  0  0  0  0
    3.4662    1.1558    0.6429 C   0  0  0  0  0  0  0  0  0  0  0  0
    2.1929    1.4959    0.2370 C   0  0  0  0  0  0  0  0  0  0  0  0
    1.2033    0.5359   -0.0216 C   0  0  0  0  0  0  0  0  0  0  0  0
   -1.1125    2.4181   -1.4853 H   0  0  0  0  0  0  0  0  0  0  0  0
   -0.1402    3.1048   -0.1720 H   0  0  0  0  0  0  0  0  0  0  0  0
    0.6437    2.5268   -1.6587 H   0  0  0  0  0  0  0  0  0  0  0  0
   -2.0535    2.1469    0.8450 H   0  0  0  0  0  0  0  0  0  0  0  0
   -4.2218    1.1490    1.3765 H   0  0  0  0  0  0  0  0  0  0  0  0
   -4.6948   -1.1977    0.7573 H   0  0  0  0  0  0  0  0  0  0  0  0
   -2.9719   -2.5188   -0.4114 H   0  0  0  0  0  0  0  0  0  0  0  0
   -0.8714   -2.6833   -1.4756 H   0  0  0  0  0  0  0  0  0  0  0  0
   -0.0627   -1.1859   -1.9723 H   0  0  0  0  0  0  0  0  0  0  0  0
    1.2651   -2.8252   -0.4556 H   0  0  0  0  0  0  0  0  0  0  0  0
    0.1916   -2.3091    0.8409 H   0  0  0  0  0  0  0  0  0  0  0  0
    3.0971   -2.1753    0.6782 H   0  0  0  0  0  0  0  0  0  0  0  0
    4.7935   -0.4600    1.1313 H   0  0  0  0  0  0  0  0  0  0  0  0
    4.1894    1.9352    0.8337 H   0  0  0  0  0  0  0  0  0  0  0  0
    1.9625    2.5438    0.1430 H   0  0  0  0  0  0  0  0  0  0  0  0
  1  2  1  0  0  0  0
  2  3  1  0  0  0  0
  3  4  2  0  0  0  0
  4  5  1  0  0  0  0
  5  6  2  0  0  0  0
  6  7  1  0  0  0  0
  7  8  2  0  0  0  0
  8  9  1  0  0  0  0
  9 10  1  0  0  0  0
 10 11  1  0  0  0  0
 11 12  2  0  0  0  0
 12 13  1  0  0  0  0
 13 14  2  0  0  0  0
 14 15  1  0  0  0  0
 15 16  2  0  0  0  0
 16  2  1  0  0  0  0
  8  3  1  0  0  0  0
 16 11  1  0  0  0  0
  1 17  1  0  0  0  0
  1 18  1  0  0  0  0
  1 19  1  0  0  0  0
  4 20  1  0  0  0  0
  5 21  1  0  0  0  0
  6 22  1  0  0  0  0
  7 23  1  0  0  0  0
  9 24  1  0  0  0  0
  9 25  1  0  0  0  0
 10 26  1  0  0  0  0
 10 27  1  0  0  0  0
 12 28  1  0  0  0  0
 13 29  1  0  0  0  0
 14 30  1  0  0  0  0
 15 31  1  0  0  0  0
M  END
