
  xtb     03022212553D
 energy: -62.548715927632 gnorm: 0.000276365991 xtb: 6.4.1 (afa7bdf)
 42 46  0     0  0            999 V2000
   -4.8772   -2.3615    1.5070 C   0  0  0  0  0  0  0  0  0  0  0  0
   -4.3550   -2.7079    0.2712 C   0  0  0  0  0  0  0  0  0  0  0  0
   -3.0561   -2.3735   -0.0574 C   0  0  0  0  0  0  0  0  0  0  0  0
   -2.2491   -1.6854    0.8514 C   0  0  0  0  0  0  0  0  0  0  0  0
   -0.8882   -1.3019    0.5305 C   0  0  0  0  0  0  0  0  0  0  0  0
   -0.1003   -1.8000   -0.4506 C   0  0  0  0  0  0  0  0  0  0  0  0
    1.1924   -1.1808   -0.5717 C   0  0  0  0  0  0  0  0  0  0  0  0
    2.1790   -1.4664   -1.4826 C   0  0  0  0  0  0  0  0  0  0  0  0
    3.3729   -0.7185   -1.4932 C   0  0  0  0  0  0  0  0  0  0  0  0
    4.4032   -0.9793   -2.4215 C   0  0  0  0  0  0  0  0  0  0  0  0
    5.5533   -0.2411   -2.4196 C   0  0  0  0  0  0  0  0  0  0  0  0
    5.7291    0.7946   -1.4891 C   0  0  0  0  0  0  0  0  0  0  0  0
    4.7506    1.0734   -0.5754 C   0  0  0  0  0  0  0  0  0  0  0  0
    3.5534    0.3308   -0.5484 C   0  0  0  0  0  0  0  0  0  0  0  0
    2.5374    0.5931    0.3980 C   0  0  0  0  0  0  0  0  0  0  0  0
    1.3829   -0.1341    0.3782 C   0  0  0  0  0  0  0  0  0  0  0  0
   -0.0113   -0.0493    1.5451 P   0  0  0  0  0  0  0  0  0  0  0  0
   -0.8852    1.4491    0.9315 C   0  0  0  0  0  0  0  0  0  0  0  0
   -1.4898    2.2846    1.8616 C   0  0  0  0  0  0  0  0  0  0  0  0
   -2.1767    3.4105    1.4429 C   0  0  0  0  0  0  0  0  0  0  0  0
   -2.2600    3.7068    0.0935 C   0  0  0  0  0  0  0  0  0  0  0  0
   -1.6546    2.8765   -0.8368 C   0  0  0  0  0  0  0  0  0  0  0  0
   -0.9693    1.7502   -0.4231 C   0  0  0  0  0  0  0  0  0  0  0  0
   -2.7927   -1.3350    2.0879 C   0  0  0  0  0  0  0  0  0  0  0  0
   -4.0905   -1.6711    2.4149 C   0  0  0  0  0  0  0  0  0  0  0  0
   -5.8937   -2.6249    1.7593 H   0  0  0  0  0  0  0  0  0  0  0  0
   -4.9678   -3.2396   -0.4423 H   0  0  0  0  0  0  0  0  0  0  0  0
   -2.6666   -2.6345   -1.0297 H   0  0  0  0  0  0  0  0  0  0  0  0
   -0.3916   -2.5993   -1.1147 H   0  0  0  0  0  0  0  0  0  0  0  0
    2.0505   -2.2652   -2.2002 H   0  0  0  0  0  0  0  0  0  0  0  0
    4.2641   -1.7774   -3.1371 H   0  0  0  0  0  0  0  0  0  0  0  0
    6.3360   -0.4496   -3.1345 H   0  0  0  0  0  0  0  0  0  0  0  0
    6.6441    1.3685   -1.5008 H   0  0  0  0  0  0  0  0  0  0  0  0
    4.8809    1.8693    0.1442 H   0  0  0  0  0  0  0  0  0  0  0  0
    2.6859    1.3785    1.1265 H   0  0  0  0  0  0  0  0  0  0  0  0
   -1.4175    2.0507    2.9150 H   0  0  0  0  0  0  0  0  0  0  0  0
   -2.6458    4.0575    2.1698 H   0  0  0  0  0  0  0  0  0  0  0  0
   -2.7955    4.5853   -0.2354 H   0  0  0  0  0  0  0  0  0  0  0  0
   -1.7190    3.1087   -1.8902 H   0  0  0  0  0  0  0  0  0  0  0  0
   -0.4981    1.1032   -1.1498 H   0  0  0  0  0  0  0  0  0  0  0  0
   -2.1724   -0.8007    2.7971 H   0  0  0  0  0  0  0  0  0  0  0  0
   -4.4926   -1.3949    3.3787 H   0  0  0  0  0  0  0  0  0  0  0  0
  1  2  2  0  0  0  0
  2  3  1  0  0  0  0
  3  4  2  0  0  0  0
  4  5  1  0  0  0  0
  5  6  2  0  0  0  0
  6  7  1  0  0  0  0
  7  8  2  0  0  0  0
  8  9  1  0  0  0  0
  9 10  2  0  0  0  0
 10 11  1  0  0  0  0
 11 12  2  0  0  0  0
 12 13  1  0  0  0  0
 13 14  2  0  0  0  0
 14 15  1  0  0  0  0
 15 16  2  0  0  0  0
 16 17  1  0  0  0  0
 17 18  1  0  0  0  0
 18 19  2  0  0  0  0
 19 20  1  0  0  0  0
 20 21  2  0  0  0  0
 21 22  1  0  0  0  0
 22 23  2  0  0  0  0
  4 24  1  0  0  0  0
 24 25  2  0  0  0  0
 25  1  1  0  0  0  0
 17  5  1  0  0  0  0
 23 18  1  0  0  0  0
 16  7  1  0  0  0  0
 14  9  1  0  0  0  0
  1 26  1  0  0  0  0
  2 27  1  0  0  0  0
  3 28  1  0  0  0  0
  6 29  1  0  0  0  0
  8 30  1  0  0  0  0
 10 31  1  0  0  0  0
 11 32  1  0  0  0  0
 12 33  1  0  0  0  0
 13 34  1  0  0  0  0
 15 35  1  0  0  0  0
 19 36  1  0  0  0  0
 20 37  1  0  0  0  0
 21 38  1  0  0  0  0
 22 39  1  0  0  0  0
 23 40  1  0  0  0  0
 24 41  1  0  0  0  0
 25 42  1  0  0  0  0
M  END
