
  xtb     03022214243D
 energy: -52.710648718185 gnorm: 0.000025032911 xtb: 6.4.1 (afa7bdf)
 32 34  0     0  0            999 V2000
    1.2140    2.3568    0.4155 O   0  0  0  0  0  0  0  0  0  0  0  0
    0.7160    1.2499    0.2961 C   0  0  0  0  0  0  0  0  0  0  0  0
   -0.7426    1.1481    0.2582 C   0  0  0  0  0  0  0  0  0  0  0  0
   -1.4848    0.0258    0.1328 C   0  0  0  0  0  0  0  0  0  0  0  0
   -2.9537    0.0579    0.1080 C   0  0  0  0  0  0  0  0  0  0  0  0
   -3.6502    1.2716    0.2152 C   0  0  0  0  0  0  0  0  0  0  0  0
   -5.0287    1.3140    0.1932 C   0  0  0  0  0  0  0  0  0  0  0  0
   -5.7665    0.1479    0.0634 C   0  0  0  0  0  0  0  0  0  0  0  0
   -5.1007   -1.0599   -0.0437 C   0  0  0  0  0  0  0  0  0  0  0  0
   -3.7193   -1.1072   -0.0222 C   0  0  0  0  0  0  0  0  0  0  0  0
   -0.7160   -1.2502    0.0208 C   0  0  0  0  0  0  0  0  0  0  0  0
   -1.2141   -2.3571   -0.0985 O   0  0  0  0  0  0  0  0  0  0  0  0
    0.7426   -1.1484    0.0586 C   0  0  0  0  0  0  0  0  0  0  0  0
    1.4848   -0.0261    0.1841 C   0  0  0  0  0  0  0  0  0  0  0  0
    2.9537   -0.0581    0.2089 C   0  0  0  0  0  0  0  0  0  0  0  0
    3.7192    1.1071    0.3388 C   0  0  0  0  0  0  0  0  0  0  0  0
    5.1005    1.0601    0.3605 C   0  0  0  0  0  0  0  0  0  0  0  0
    5.7665   -0.1476    0.2535 C   0  0  0  0  0  0  0  0  0  0  0  0
    5.0288   -1.3139    0.1240 C   0  0  0  0  0  0  0  0  0  0  0  0
    3.6504   -1.2717    0.1020 C   0  0  0  0  0  0  0  0  0  0  0  0
   -1.2054    2.1202    0.3459 H   0  0  0  0  0  0  0  0  0  0  0  0
   -3.1210    2.2046    0.3179 H   0  0  0  0  0  0  0  0  0  0  0  0
   -5.5329    2.2656    0.2780 H   0  0  0  0  0  0  0  0  0  0  0  0
   -6.8455    0.1840    0.0465 H   0  0  0  0  0  0  0  0  0  0  0  0
   -5.6593   -1.9785   -0.1455 H   0  0  0  0  0  0  0  0  0  0  0  0
   -3.2331   -2.0632   -0.1078 H   0  0  0  0  0  0  0  0  0  0  0  0
    1.2055   -2.1205   -0.0291 H   0  0  0  0  0  0  0  0  0  0  0  0
    3.2328    2.0631    0.4243 H   0  0  0  0  0  0  0  0  0  0  0  0
    5.6590    1.9788    0.4621 H   0  0  0  0  0  0  0  0  0  0  0  0
    6.8456   -0.1836    0.2705 H   0  0  0  0  0  0  0  0  0  0  0  0
    5.5332   -2.2654    0.0393 H   0  0  0  0  0  0  0  0  0  0  0  0
    3.1212   -2.2048   -0.0005 H   0  0  0  0  0  0  0  0  0  0  0  0
  1  2  2  0  0  0  0
  2  3  1  0  0  0  0
  3  4  2  0  0  0  0
  4  5  1  0  0  0  0
  5  6  2  0  0  0  0
  6  7  1  0  0  0  0
  7  8  2  0  0  0  0
  8  9  1  0  0  0  0
  9 10  2  0  0  0  0
  4 11  1  0  0  0  0
 11 12  2  0  0  0  0
 11 13  1  0  0  0  0
 13 14  2  0  0  0  0
 14 15  1  0  0  0  0
 15 16  2  0  0  0  0
 16 17  1  0  0  0  0
 17 18  2  0  0  0  0
 18 19  1  0  0  0  0
 19 20  2  0  0  0  0
 14  2  1  0  0  0  0
 20 15  1  0  0  0  0
 10  5  1  0  0  0  0
  3 21  1  0  0  0  0
  6 22  1  0  0  0  0
  7 23  1  0  0  0  0
  8 24  1  0  0  0  0
  9 25  1  0  0  0  0
 10 26  1  0  0  0  0
 13 27  1  0  0  0  0
 16 28  1  0  0  0  0
 17 29  1  0  0  0  0
 18 30  1  0  0  0  0
 19 31  1  0  0  0  0
 20 32  1  0  0  0  0
M  END
