
  xtb     03022214263D
 energy: -48.158037283391 gnorm: 0.000047424935 xtb: 6.4.1 (afa7bdf)
 30 32  0     0  0            999 V2000
    5.2348    2.4415   -0.4838 O   0  0  0  0  0  0  0  0  0  0  0  0
    4.1342    1.6685   -0.7137 C   0  0  0  0  0  0  0  0  0  0  0  0
    4.0507    0.8027   -1.7963 C   0  0  0  0  0  0  0  0  0  0  0  0
    2.9154    0.0396   -1.9887 C   0  0  0  0  0  0  0  0  0  0  0  0
    1.8405    0.1244   -1.1052 C   0  0  0  0  0  0  0  0  0  0  0  0
    0.7294   -0.6717   -1.3598 N   0  0  0  0  0  0  0  0  0  0  0  0
   -0.4478   -0.7973   -0.6792 C   0  0  0  0  0  0  0  0  0  0  0  0
   -1.4083   -1.7128   -1.2062 C   0  0  0  0  0  0  0  0  0  0  0  0
   -2.5945   -1.8703   -0.5621 C   0  0  0  0  0  0  0  0  0  0  0  0
   -2.8560   -1.1279    0.6147 C   0  0  0  0  0  0  0  0  0  0  0  0
   -4.0526   -1.2274    1.3434 C   0  0  0  0  0  0  0  0  0  0  0  0
   -4.2388   -0.4789    2.4750 C   0  0  0  0  0  0  0  0  0  0  0  0
   -3.2351    0.3946    2.9165 C   0  0  0  0  0  0  0  0  0  0  0  0
   -2.0585    0.5139    2.2281 C   0  0  0  0  0  0  0  0  0  0  0  0
   -1.8384   -0.2434    1.0603 C   0  0  0  0  0  0  0  0  0  0  0  0
   -0.6675   -0.0986    0.4096 N   0  0  0  0  0  0  0  0  0  0  0  0
    1.9292    0.9948   -0.0198 C   0  0  0  0  0  0  0  0  0  0  0  0
    3.0634    1.7558    0.1703 C   0  0  0  0  0  0  0  0  0  0  0  0
    5.8931    2.2799   -1.1697 H   0  0  0  0  0  0  0  0  0  0  0  0
    4.8763    0.7246   -2.4919 H   0  0  0  0  0  0  0  0  0  0  0  0
    2.8644   -0.6303   -2.8364 H   0  0  0  0  0  0  0  0  0  0  0  0
    0.8100   -1.2500   -2.1848 H   0  0  0  0  0  0  0  0  0  0  0  0
   -1.1791   -2.2652   -2.1066 H   0  0  0  0  0  0  0  0  0  0  0  0
   -3.3452   -2.5549   -0.9335 H   0  0  0  0  0  0  0  0  0  0  0  0
   -4.8207   -1.9042    0.9947 H   0  0  0  0  0  0  0  0  0  0  0  0
   -5.1597   -0.5569    3.0341 H   0  0  0  0  0  0  0  0  0  0  0  0
   -3.3995    0.9771    3.8115 H   0  0  0  0  0  0  0  0  0  0  0  0
   -1.2779    1.1822    2.5568 H   0  0  0  0  0  0  0  0  0  0  0  0
    1.0988    1.0593    0.6617 H   0  0  0  0  0  0  0  0  0  0  0  0
    3.1391    2.4312    1.0073 H   0  0  0  0  0  0  0  0  0  0  0  0
  1  2  1  0  0  0  0
  2  3  2  0  0  0  0
  3  4  1  0  0  0  0
  4  5  2  0  0  0  0
  5  6  1  0  0  0  0
  6  7  1  0  0  0  0
  7  8  2  0  0  0  0
  8  9  1  0  0  0  0
  9 10  2  0  0  0  0
 10 11  1  0  0  0  0
 11 12  2  0  0  0  0
 12 13  1  0  0  0  0
 13 14  2  0  0  0  0
 14 15  1  0  0  0  0
 15 16  2  0  0  0  0
  5 17  1  0  0  0  0
 17 18  2  0  0  0  0
 18  2  1  0  0  0  0
 16  7  1  0  0  0  0
 15 10  1  0  0  0  0
  1 19  1  0  0  0  0
  3 20  1  0  0  0  0
  4 21  1  0  0  0  0
  6 22  1  0  0  0  0
  8 23  1  0  0  0  0
  9 24  1  0  0  0  0
 11 25  1  0  0  0  0
 12 26  1  0  0  0  0
 13 27  1  0  0  0  0
 14 28  1  0  0  0  0
 17 29  1  0  0  0  0
 18 30  1  0  0  0  0
M  END
