
  xtb     03022214073D
 energy: -95.748253020146 gnorm: 0.000106111638 xtb: 6.4.1 (afa7bdf)
 65 69  0     0  0            999 V2000
   -1.8102   -3.3226    0.3478 C   0  0  0  0  0  0  0  0  0  0  0  0
   -3.0892   -2.7064   -0.0931 C   0  0  0  0  0  0  0  0  0  0  0  0
   -4.2013   -3.3890   -0.5462 C   0  0  0  0  0  0  0  0  0  0  0  0
   -5.1944   -2.4495   -0.8536 C   0  0  0  0  0  0  0  0  0  0  0  0
   -6.5574   -2.6910   -1.3744 C   0  0  0  0  0  0  0  0  0  0  0  0
   -4.7274   -1.2226   -0.6030 N   0  0  0  0  0  4  0  0  0  0  0  0
   -3.4301   -1.3240   -0.1342 C   0  0  0  0  0  0  0  0  0  0  0  0
   -2.6973   -0.1888    0.2091 C   0  0  0  0  0  0  0  0  0  0  0  0
   -1.3098   -0.3332    0.6948 C   0  0  0  0  0  0  0  0  0  0  0  0
   -0.2540   -0.4136   -0.2010 C   0  0  0  0  0  0  0  0  0  0  0  0
    1.0499   -0.5579    0.2416 C   0  0  0  0  0  0  0  0  0  0  0  0
    1.3200   -0.6291    1.6045 C   0  0  0  0  0  0  0  0  0  0  0  0
    2.5460   -0.7972    2.1664 O   0  0  0  0  0  0  0  0  0  0  0  0
    3.6910   -0.8892    1.3469 C   0  0  0  0  0  0  0  0  0  0  0  0
    4.1789    0.4859    0.8686 C   0  0  0  0  0  0  0  0  0  0  0  0
    5.4322    0.3625    0.1563 N   0  0  0  0  0  0  0  0  0  0  0  0
    6.2420    1.5688    0.2476 C   0  0  0  0  0  0  0  0  0  0  0  0
    7.4484    1.4883   -0.6957 C   0  0  0  0  0  0  0  0  0  0  0  0
    7.7822    0.0264   -0.9641 C   0  0  0  0  0  0  0  0  0  0  0  0
    6.6239   -0.6180   -1.7281 C   0  0  0  0  0  0  0  0  0  0  0  0
    5.2873   -0.0525   -1.2267 C   0  0  0  0  0  0  0  0  0  0  0  0
    0.2561   -0.5440    2.5067 C   0  0  0  0  0  0  0  0  0  0  0  0
   -1.0383   -0.3974    2.0585 C   0  0  0  0  0  0  0  0  0  0  0  0
   -3.2663    1.0788    0.0958 C   0  0  0  0  0  0  0  0  0  0  0  0
   -2.7359    2.3712    0.3725 C   0  0  0  0  0  0  0  0  0  0  0  0
   -1.3785    2.7159    0.8714 C   0  0  0  0  0  0  0  0  0  0  0  0
   -3.7433    3.2699    0.0799 C   0  0  0  0  0  0  0  0  0  0  0  0
   -4.8573    2.5460   -0.3658 C   0  0  0  0  0  0  0  0  0  0  0  0
   -6.1755    3.0607   -0.7959 C   0  0  0  0  0  0  0  0  0  0  0  0
   -4.5637    1.2422   -0.3546 N   0  0  0  0  0  0  0  0  0  0  0  0
   -5.4980    0.0975   -0.7879 B   0  0  0  0  0  4  0  0  0  0  0  0
   -5.8580    0.2560   -2.1180 F   0  0  0  0  0  0  0  0  0  0  0  0
   -6.6424    0.0941   -0.0050 F   0  0  0  0  0  0  0  0  0  0  0  0
   -1.5576   -3.0157    1.3615 H   0  0  0  0  0  0  0  0  0  0  0  0
   -1.8979   -4.4061    0.3178 H   0  0  0  0  0  0  0  0  0  0  0  0
   -0.9888   -3.0196   -0.3001 H   0  0  0  0  0  0  0  0  0  0  0  0
   -4.3019   -4.4523   -0.6483 H   0  0  0  0  0  0  0  0  0  0  0  0
   -6.7387   -3.7550   -1.4970 H   0  0  0  0  0  0  0  0  0  0  0  0
   -6.6813   -2.1829   -2.3299 H   0  0  0  0  0  0  0  0  0  0  0  0
   -7.2927   -2.2668   -0.6921 H   0  0  0  0  0  0  0  0  0  0  0  0
   -0.4535   -0.3598   -1.2615 H   0  0  0  0  0  0  0  0  0  0  0  0
    1.8405   -0.6148   -0.4899 H   0  0  0  0  0  0  0  0  0  0  0  0
    3.5128   -1.5671    0.5053 H   0  0  0  0  0  0  0  0  0  0  0  0
    4.4632   -1.3303    1.9815 H   0  0  0  0  0  0  0  0  0  0  0  0
    3.3973    0.9798    0.2647 H   0  0  0  0  0  0  0  0  0  0  0  0
    4.3424    1.1003    1.7577 H   0  0  0  0  0  0  0  0  0  0  0  0
    6.5817    1.6483    1.2846 H   0  0  0  0  0  0  0  0  0  0  0  0
    5.6495    2.4718    0.0143 H   0  0  0  0  0  0  0  0  0  0  0  0
    7.2228    1.9809   -1.6435 H   0  0  0  0  0  0  0  0  0  0  0  0
    8.2982    2.0044   -0.2484 H   0  0  0  0  0  0  0  0  0  0  0  0
    7.9188   -0.4829   -0.0099 H   0  0  0  0  0  0  0  0  0  0  0  0
    8.7067   -0.0599   -1.5361 H   0  0  0  0  0  0  0  0  0  0  0  0
    6.7199   -0.4193   -2.7968 H   0  0  0  0  0  0  0  0  0  0  0  0
    6.6505   -1.6984   -1.5846 H   0  0  0  0  0  0  0  0  0  0  0  0
    4.5158   -0.8205   -1.2938 H   0  0  0  0  0  0  0  0  0  0  0  0
    4.9659    0.7937   -1.8602 H   0  0  0  0  0  0  0  0  0  0  0  0
    0.4773   -0.6008    3.5607 H   0  0  0  0  0  0  0  0  0  0  0  0
   -1.8525   -0.3375    2.7655 H   0  0  0  0  0  0  0  0  0  0  0  0
   -0.6086    2.3163    0.2131 H   0  0  0  0  0  0  0  0  0  0  0  0
   -1.2102    2.2979    1.8629 H   0  0  0  0  0  0  0  0  0  0  0  0
   -1.2726    3.7969    0.9242 H   0  0  0  0  0  0  0  0  0  0  0  0
   -3.6952    4.3378    0.1718 H   0  0  0  0  0  0  0  0  0  0  0  0
   -6.9582    2.6376   -0.1677 H   0  0  0  0  0  0  0  0  0  0  0  0
   -6.3805    2.7403   -1.8164 H   0  0  0  0  0  0  0  0  0  0  0  0
   -6.2024    4.1450   -0.7373 H   0  0  0  0  0  0  0  0  0  0  0  0
  1  2  1  0  0  0  0
  2  3  2  0  0  0  0
  3  4  1  0  0  0  0
  4  5  1  0  0  0  0
  4  6  2  0  0  0  0
  6  7  1  0  0  0  0
  7  8  2  0  0  0  0
  8  9  1  0  0  0  0
  9 10  2  0  0  0  0
 10 11  1  0  0  0  0
 11 12  2  0  0  0  0
 12 13  1  0  0  0  0
 13 14  1  0  0  0  0
 14 15  1  0  0  0  0
 15 16  1  0  0  0  0
 16 17  1  0  0  0  0
 17 18  1  0  0  0  0
 18 19  1  0  0  0  0
 19 20  1  0  0  0  0
 20 21  1  0  0  0  0
 12 22  1  0  0  0  0
 22 23  2  0  0  0  0
  8 24  1  0  0  0  0
 24 25  2  0  0  0  0
 25 26  1  0  0  0  0
 25 27  1  0  0  0  0
 27 28  2  0  0  0  0
 28 29  1  0  0  0  0
 28 30  1  0  0  0  0
 30 31  1  0  0  0  0
 31 32  1  0  0  0  0
 31 33  1  0  0  0  0
  7  2  1  0  0  0  0
 23  9  1  0  0  0  0
 30 24  1  0  0  0  0
 31  6  1  0  0  0  0
 21 16  1  0  0  0  0
  1 34  1  0  0  0  0
  1 35  1  0  0  0  0
  1 36  1  0  0  0  0
  3 37  1  0  0  0  0
  5 38  1  0  0  0  0
  5 39  1  0  0  0  0
  5 40  1  0  0  0  0
 10 41  1  0  0  0  0
 11 42  1  0  0  0  0
 14 43  1  0  0  0  0
 14 44  1  0  0  0  0
 15 45  1  0  0  0  0
 15 46  1  0  0  0  0
 17 47  1  0  0  0  0
 17 48  1  0  0  0  0
 18 49  1  0  0  0  0
 18 50  1  0  0  0  0
 19 51  1  0  0  0  0
 19 52  1  0  0  0  0
 20 53  1  0  0  0  0
 20 54  1  0  0  0  0
 21 55  1  0  0  0  0
 21 56  1  0  0  0  0
 22 57  1  0  0  0  0
 23 58  1  0  0  0  0
 26 59  1  0  0  0  0
 26 60  1  0  0  0  0
 26 61  1  0  0  0  0
 27 62  1  0  0  0  0
 29 63  1  0  0  0  0
 29 64  1  0  0  0  0
 29 65  1  0  0  0  0
M  CHG  1   6   1
M  CHG  1  31  -1
M  END
