
  xtb     03022214383D
 energy: -59.816247879173 gnorm: 0.000485262828 xtb: 6.4.1 (afa7bdf)
 38 39  0     0  0            999 V2000
   -3.4378   -1.9000   -0.8521 C   0  0  0  0  0  0  0  0  0  0  0  0
   -3.2423   -1.4515    0.5968 C   0  0  0  0  0  0  0  0  0  0  0  0
   -2.9359   -0.0428    0.7311 N   0  0  0  0  0  0  0  0  0  0  0  0
   -4.0568    0.8680    0.8482 C   0  0  0  0  0  0  0  0  0  0  0  0
   -4.3773    1.5999   -0.4559 C   0  0  0  0  0  0  0  0  0  0  0  0
   -1.6632    0.4174    0.5949 C   0  0  0  0  0  0  0  0  0  0  0  0
   -1.3458    1.7829    0.8041 C   0  0  0  0  0  0  0  0  0  0  0  0
   -0.0635    2.2454    0.7005 C   0  0  0  0  0  0  0  0  0  0  0  0
    0.9984    1.3905    0.3715 C   0  0  0  0  0  0  0  0  0  0  0  0
    2.3513    1.7948    0.2675 C   0  0  0  0  0  0  0  0  0  0  0  0
    3.3093    0.8809   -0.0632 C   0  0  0  0  0  0  0  0  0  0  0  0
    4.6727    1.2344   -0.0883 C   0  0  0  0  0  0  0  0  0  0  0  0
    5.7752    1.5476   -0.0400 N   0  0  0  0  0  0  0  0  0  0  0  0
    2.9406   -0.5016   -0.3430 C   0  0  0  0  0  0  0  0  0  0  0  0
    3.7416   -1.4370   -0.6493 N   0  0  0  0  0  0  0  0  0  0  0  0
    4.9972   -1.4360   -1.1748 C   0  0  0  0  0  0  0  0  0  0  0  0
    5.9894   -2.2131   -0.3418 C   0  0  0  0  0  0  0  0  0  0  0  0
    5.2454   -0.9603   -2.2598 O   0  0  0  0  0  0  0  0  0  0  0  0
    1.6462   -0.8672   -0.1887 O   0  0  0  0  0  0  0  0  0  0  0  0
    0.6912    0.0327    0.1541 C   0  0  0  0  0  0  0  0  0  0  0  0
   -0.6020   -0.4400    0.2646 C   0  0  0  0  0  0  0  0  0  0  0  0
   -4.3176   -1.4310   -1.2846 H   0  0  0  0  0  0  0  0  0  0  0  0
   -3.5724   -2.9778   -0.8879 H   0  0  0  0  0  0  0  0  0  0  0  0
   -2.5744   -1.6358   -1.4566 H   0  0  0  0  0  0  0  0  0  0  0  0
   -4.1571   -1.6509    1.1615 H   0  0  0  0  0  0  0  0  0  0  0  0
   -2.4441   -2.0326    1.0641 H   0  0  0  0  0  0  0  0  0  0  0  0
   -4.9284    0.2859    1.1536 H   0  0  0  0  0  0  0  0  0  0  0  0
   -3.8598    1.5928    1.6441 H   0  0  0  0  0  0  0  0  0  0  0  0
   -5.1981    2.2940   -0.2950 H   0  0  0  0  0  0  0  0  0  0  0  0
   -4.6679    0.8952   -1.2300 H   0  0  0  0  0  0  0  0  0  0  0  0
   -3.5136    2.1562   -0.8101 H   0  0  0  0  0  0  0  0  0  0  0  0
   -2.1171    2.4867    1.0648 H   0  0  0  0  0  0  0  0  0  0  0  0
    0.1486    3.2900    0.8733 H   0  0  0  0  0  0  0  0  0  0  0  0
    2.6187    2.8234    0.4649 H   0  0  0  0  0  0  0  0  0  0  0  0
    6.3922   -1.5454    0.4188 H   0  0  0  0  0  0  0  0  0  0  0  0
    6.8038   -2.5574   -0.9724 H   0  0  0  0  0  0  0  0  0  0  0  0
    5.5005   -3.0509    0.1469 H   0  0  0  0  0  0  0  0  0  0  0  0
   -0.7473   -1.4875    0.0681 H   0  0  0  0  0  0  0  0  0  0  0  0
  1  2  1  0  0  0  0
  2  3  1  0  0  0  0
  3  4  1  0  0  0  0
  4  5  1  0  0  0  0
  3  6  1  0  0  0  0
  6  7  2  0  0  0  0
  7  8  1  0  0  0  0
  8  9  2  0  0  0  0
  9 10  1  0  0  0  0
 10 11  2  0  0  0  0
 11 12  1  0  0  0  0
 12 13  3  0  0  0  0
 11 14  1  0  0  0  0
 14 15  2  0  0  0  0
 15 16  1  0  0  0  0
 16 17  1  0  0  0  0
 16 18  2  0  0  0  0
 14 19  1  0  0  0  0
 19 20  1  0  0  0  0
 20 21  2  0  0  0  0
 21  6  1  0  0  0  0
 20  9  1  0  0  0  0
  1 22  1  0  0  0  0
  1 23  1  0  0  0  0
  1 24  1  0  0  0  0
  2 25  1  0  0  0  0
  2 26  1  0  0  0  0
  4 27  1  0  0  0  0
  4 28  1  0  0  0  0
  5 29  1  0  0  0  0
  5 30  1  0  0  0  0
  5 31  1  0  0  0  0
  7 32  1  0  0  0  0
  8 33  1  0  0  0  0
 10 34  1  0  0  0  0
 17 35  1  0  0  0  0
 17 36  1  0  0  0  0
 17 37  1  0  0  0  0
 21 38  1  0  0  0  0
M  END
