
  xtb     03022213283D
 energy: -106.870834267365 gnorm: 0.000132410093 xtb: 6.4.1 (afa7bdf)
 78 82  0     0  0            999 V2000
   -7.8878    0.1529   -0.3263 C   0  0  0  0  0  0  0  0  0  0  0  0
   -6.3866   -0.0530   -0.4796 C   0  0  0  0  0  0  0  0  0  0  0  0
   -5.7186   -0.3678    0.8654 C   0  0  0  0  0  0  0  0  0  0  0  0
   -4.2503   -0.5576    0.7042 C   0  0  0  0  0  0  0  0  0  0  0  0
   -3.5740   -1.7329    0.5972 C   0  0  0  0  0  0  0  0  0  0  0  0
   -2.1880   -1.3962    0.4122 C   0  0  0  0  0  0  0  0  0  0  0  0
   -2.0350   -0.0623    0.4044 N   0  0  0  0  0  0  0  0  0  0  0  0
   -3.2490    0.4942    0.5767 C   0  0  0  0  0  0  0  0  0  0  0  0
   -3.5202    1.8666    0.6383 C   0  0  0  0  0  0  0  0  0  0  0  0
   -2.6865    2.9629    0.5303 C   0  0  0  0  0  0  0  0  0  0  0  0
   -1.3047    3.0316    0.3285 C   0  0  0  0  0  0  0  0  0  0  0  0
   -0.4781    1.9619    0.2096 N   0  0  0  0  0  0  0  0  0  0  0  0
    0.7984    2.3693    0.0394 C   0  0  0  0  0  0  0  0  0  0  0  0
    0.7956    3.7895    0.0458 C   0  0  0  0  0  0  0  0  0  0  0  0
   -0.4974    4.2108    0.2257 C   0  0  0  0  0  0  0  0  0  0  0  0
   -0.9837    5.6193    0.2559 C   0  0  0  0  0  0  0  0  0  0  0  0
   -1.5581    6.0362   -1.1047 C   0  0  0  0  0  0  0  0  0  0  0  0
   -2.0620    7.4732   -1.0837 C   0  0  0  0  0  0  0  0  0  0  0  0
    1.8937    1.5019   -0.1108 C   0  0  0  0  0  0  0  0  0  0  0  0
    1.7857    0.1603   -0.1185 N   0  0  0  0  0  0  0  0  0  0  0  0
    3.0238   -0.3523   -0.2852 C   0  0  0  0  0  0  0  0  0  0  0  0
    3.2839   -1.7485   -0.3612 C   0  0  0  0  0  0  0  0  0  0  0  0
    4.6101   -2.0105   -0.5823 O   0  0  0  0  0  0  0  0  0  0  0  0
    5.0900   -3.3212   -0.7216 C   0  0  0  0  0  0  0  0  0  0  0  0
    2.3983   -2.8103   -0.2406 C   0  0  0  0  0  0  0  0  0  0  0  0
    1.0171   -2.8785   -0.0420 C   0  0  0  0  0  0  0  0  0  0  0  0
    0.1747   -1.8279    0.0809 N   0  0  0  0  0  0  0  0  0  0  0  0
   -1.0985   -2.2620    0.2563 C   0  0  0  0  0  0  0  0  0  0  0  0
   -1.0687   -3.6788    0.2456 C   0  0  0  0  0  0  0  0  0  0  0  0
    0.2328   -4.0755    0.0644 C   0  0  0  0  0  0  0  0  0  0  0  0
    0.7031   -5.4882   -0.0384 C   0  0  0  0  0  0  0  0  0  0  0  0
    0.4902   -6.0582   -1.4491 C   0  0  0  0  0  0  0  0  0  0  0  0
    1.3756   -5.3862   -2.4902 C   0  0  0  0  0  0  0  0  0  0  0  0
    3.9888    0.7315   -0.3844 C   0  0  0  0  0  0  0  0  0  0  0  0
    5.4755    0.7023   -0.5156 C   0  0  0  0  0  0  0  0  0  0  0  0
    6.1583    0.9059    0.8450 C   0  0  0  0  0  0  0  0  0  0  0  0
    5.8575   -0.2222    1.8223 C   0  0  0  0  0  0  0  0  0  0  0  0
    3.2618    1.8809   -0.2759 C   0  0  0  0  0  0  0  0  0  0  0  0
   -8.3444    0.3684   -1.2897 H   0  0  0  0  0  0  0  0  0  0  0  0
   -8.0938    0.9846    0.3447 H   0  0  0  0  0  0  0  0  0  0  0  0
   -8.3561   -0.7397    0.0835 H   0  0  0  0  0  0  0  0  0  0  0  0
   -5.9333    0.8439   -0.9077 H   0  0  0  0  0  0  0  0  0  0  0  0
   -6.1971   -0.8783   -1.1697 H   0  0  0  0  0  0  0  0  0  0  0  0
   -5.9208    0.4451    1.5678 H   0  0  0  0  0  0  0  0  0  0  0  0
   -6.1556   -1.2819    1.2743 H   0  0  0  0  0  0  0  0  0  0  0  0
   -3.9729   -2.7278    0.6435 H   0  0  0  0  0  0  0  0  0  0  0  0
   -4.5648    2.1026    0.8000 H   0  0  0  0  0  0  0  0  0  0  0  0
   -3.1722    3.9267    0.6174 H   0  0  0  0  0  0  0  0  0  0  0  0
   -0.8806    0.9897    0.2594 H   0  0  0  0  0  0  0  0  0  0  0  0
    1.6610    4.4128   -0.0675 H   0  0  0  0  0  0  0  0  0  0  0  0
   -0.1529    6.2813    0.5093 H   0  0  0  0  0  0  0  0  0  0  0  0
   -1.7541    5.7354    1.0219 H   0  0  0  0  0  0  0  0  0  0  0  0
   -2.3749    5.3626   -1.3726 H   0  0  0  0  0  0  0  0  0  0  0  0
   -0.7808    5.9299   -1.8644 H   0  0  0  0  0  0  0  0  0  0  0  0
   -2.8504    7.5919   -0.3431 H   0  0  0  0  0  0  0  0  0  0  0  0
   -2.4605    7.7525   -2.0563 H   0  0  0  0  0  0  0  0  0  0  0  0
   -1.2541    8.1580   -0.8346 H   0  0  0  0  0  0  0  0  0  0  0  0
    6.1582   -3.2144   -0.9122 H   0  0  0  0  0  0  0  0  0  0  0  0
    4.6297   -3.8398   -1.5695 H   0  0  0  0  0  0  0  0  0  0  0  0
    4.9515   -3.9105    0.1916 H   0  0  0  0  0  0  0  0  0  0  0  0
    2.8458   -3.7897   -0.3156 H   0  0  0  0  0  0  0  0  0  0  0  0
    0.5743   -0.8569    0.0337 H   0  0  0  0  0  0  0  0  0  0  0  0
   -1.9221   -4.3176    0.3655 H   0  0  0  0  0  0  0  0  0  0  0  0
    1.7590   -5.5644    0.2270 H   0  0  0  0  0  0  0  0  0  0  0  0
    0.1358   -6.0972    0.6697 H   0  0  0  0  0  0  0  0  0  0  0  0
    0.7013   -7.1299   -1.4319 H   0  0  0  0  0  0  0  0  0  0  0  0
   -0.5576   -5.9268   -1.7260 H   0  0  0  0  0  0  0  0  0  0  0  0
    2.4271   -5.5553   -2.2647 H   0  0  0  0  0  0  0  0  0  0  0  0
    1.1721   -5.7918   -3.4787 H   0  0  0  0  0  0  0  0  0  0  0  0
    1.1932   -4.3144   -2.5135 H   0  0  0  0  0  0  0  0  0  0  0  0
    5.7760    1.5217   -1.1753 H   0  0  0  0  0  0  0  0  0  0  0  0
    5.8111   -0.2335   -0.9549 H   0  0  0  0  0  0  0  0  0  0  0  0
    5.8208    1.8529    1.2729 H   0  0  0  0  0  0  0  0  0  0  0  0
    7.2379    0.9741    0.6893 H   0  0  0  0  0  0  0  0  0  0  0  0
    4.7873   -0.2904    2.0047 H   0  0  0  0  0  0  0  0  0  0  0  0
    6.1972   -1.1732    1.4198 H   0  0  0  0  0  0  0  0  0  0  0  0
    6.3592   -0.0480    2.7722 H   0  0  0  0  0  0  0  0  0  0  0  0
    3.6331    2.8868   -0.3088 H   0  0  0  0  0  0  0  0  0  0  0  0
  1  2  1  0  0  0  0
  2  3  1  0  0  0  0
  3  4  1  0  0  0  0
  4  5  2  0  0  0  0
  5  6  1  0  0  0  0
  6  7  2  0  0  0  0
  7  8  1  0  0  0  0
  8  9  2  0  0  0  0
  9 10  1  0  0  0  0
 10 11  2  0  0  0  0
 11 12  1  0  0  0  0
 12 13  1  0  0  0  0
 13 14  1  0  0  0  0
 14 15  2  0  0  0  0
 15 16  1  0  0  0  0
 16 17  1  0  0  0  0
 17 18  1  0  0  0  0
 13 19  2  0  0  0  0
 19 20  1  0  0  0  0
 20 21  2  0  0  0  0
 21 22  1  0  0  0  0
 22 23  1  0  0  0  0
 23 24  1  0  0  0  0
 22 25  2  0  0  0  0
 25 26  1  0  0  0  0
 26 27  1  0  0  0  0
 27 28  1  0  0  0  0
 28 29  2  0  0  0  0
 29 30  1  0  0  0  0
 30 31  1  0  0  0  0
 31 32  1  0  0  0  0
 32 33  1  0  0  0  0
 21 34  1  0  0  0  0
 34 35  1  0  0  0  0
 35 36  1  0  0  0  0
 36 37  1  0  0  0  0
 34 38  2  0  0  0  0
  8  4  1  0  0  0  0
 15 11  1  0  0  0  0
 38 19  1  0  0  0  0
 28  6  1  0  0  0  0
 30 26  2  0  0  0  0
  1 39  1  0  0  0  0
  1 40  1  0  0  0  0
  1 41  1  0  0  0  0
  2 42  1  0  0  0  0
  2 43  1  0  0  0  0
  3 44  1  0  0  0  0
  3 45  1  0  0  0  0
  5 46  1  0  0  0  0
  9 47  1  0  0  0  0
 10 48  1  0  0  0  0
 12 49  1  0  0  0  0
 14 50  1  0  0  0  0
 16 51  1  0  0  0  0
 16 52  1  0  0  0  0
 17 53  1  0  0  0  0
 17 54  1  0  0  0  0
 18 55  1  0  0  0  0
 18 56  1  0  0  0  0
 18 57  1  0  0  0  0
 24 58  1  0  0  0  0
 24 59  1  0  0  0  0
 24 60  1  0  0  0  0
 25 61  1  0  0  0  0
 27 62  1  0  0  0  0
 29 63  1  0  0  0  0
 31 64  1  0  0  0  0
 31 65  1  0  0  0  0
 32 66  1  0  0  0  0
 32 67  1  0  0  0  0
 33 68  1  0  0  0  0
 33 69  1  0  0  0  0
 33 70  1  0  0  0  0
 35 71  1  0  0  0  0
 35 72  1  0  0  0  0
 36 73  1  0  0  0  0
 36 74  1  0  0  0  0
 37 75  1  0  0  0  0
 37 76  1  0  0  0  0
 37 77  1  0  0  0  0
 38 78  1  0  0  0  0
M  END
