
  xtb     03022213433D
 energy: -92.177559383470 gnorm: 0.000086127432 xtb: 6.4.1 (afa7bdf)
 59 62  0     0  0            999 V2000
   -5.8964    3.4531   -0.9993 C   0  0  0  0  0  0  0  0  0  0  0  0
   -5.0272    2.2823   -0.6572 C   0  0  0  0  0  0  0  0  0  0  0  0
   -4.5430    2.1091    0.6315 C   0  0  0  0  0  0  0  0  0  0  0  0
   -3.7527    1.0210    0.9682 C   0  0  0  0  0  0  0  0  0  0  0  0
   -3.2332    0.8449    2.3628 C   0  0  0  0  0  0  0  0  0  0  0  0
   -3.4454    0.0820   -0.0174 C   0  0  0  0  0  0  0  0  0  0  0  0
   -2.6039   -1.0819    0.3230 C   0  0  0  0  0  0  0  0  0  0  0  0
   -1.2134   -0.9683    0.2951 C   0  0  0  0  0  0  0  0  0  0  0  0
   -0.3968    0.1319   -0.0227 C   0  0  0  0  0  0  0  0  0  0  0  0
    0.9252   -0.2826    0.1150 C   0  0  0  0  0  0  0  0  0  0  0  0
    2.0976    0.5176   -0.1003 C   0  0  0  0  0  0  0  0  0  0  0  0
    3.3639    0.1115    0.0566 C   0  0  0  0  0  0  0  0  0  0  0  0
    4.4838    1.0360   -0.1913 C   0  0  0  0  0  0  0  0  0  0  0  0
    4.3529    2.1867   -0.5422 O   0  0  0  0  0  0  0  0  0  0  0  0
    5.6439    0.4144    0.0299 O   0  0  0  0  0  0  0  0  0  0  0  0
    6.9104    1.0943   -0.1396 C   0  0  0  0  0  0  0  0  0  0  0  0
    7.0067    2.2779    0.8231 C   0  0  0  0  0  0  0  0  0  0  0  0
    7.0740    1.5506   -1.5894 C   0  0  0  0  0  0  0  0  0  0  0  0
    7.9540    0.0325    0.2098 C   0  0  0  0  0  0  0  0  0  0  0  0
    0.8655   -1.6380    0.5129 C   0  0  0  0  0  0  0  0  0  0  0  0
   -0.3932   -2.0327    0.6155 N   0  0  0  0  0  4  0  0  0  0  0  0
   -0.8899   -3.4463    1.0187 B   0  0  0  0  0  4  0  0  0  0  0  0
   -0.4352   -3.7565    2.2800 F   0  0  0  0  0  0  0  0  0  0  0  0
   -0.4410   -4.3736    0.1060 F   0  0  0  0  0  0  0  0  0  0  0  0
   -2.4363   -3.3985    1.0093 N   0  0  0  0  0  0  0  0  0  0  0  0
   -3.2657   -4.3909    1.3108 C   0  0  0  0  0  0  0  0  0  0  0  0
   -4.5942   -3.9642    1.1895 C   0  0  0  0  0  0  0  0  0  0  0  0
   -4.5558   -2.6456    0.7940 C   0  0  0  0  0  0  0  0  0  0  0  0
   -3.1906   -2.2921    0.6806 C   0  0  0  0  0  0  0  0  0  0  0  0
   -3.9214    0.2339   -1.3207 C   0  0  0  0  0  0  0  0  0  0  0  0
   -3.5737   -0.7777   -2.3702 C   0  0  0  0  0  0  0  0  0  0  0  0
   -4.7066    1.3357   -1.6208 C   0  0  0  0  0  0  0  0  0  0  0  0
   -5.7177    3.7831   -2.0200 H   0  0  0  0  0  0  0  0  0  0  0  0
   -5.7147    4.2835   -0.3216 H   0  0  0  0  0  0  0  0  0  0  0  0
   -6.9468    3.1724   -0.9165 H   0  0  0  0  0  0  0  0  0  0  0  0
   -4.7846    2.8380    1.3916 H   0  0  0  0  0  0  0  0  0  0  0  0
   -3.6153    1.6243    3.0166 H   0  0  0  0  0  0  0  0  0  0  0  0
   -2.1445    0.8864    2.3724 H   0  0  0  0  0  0  0  0  0  0  0  0
   -3.5291   -0.1243    2.7626 H   0  0  0  0  0  0  0  0  0  0  0  0
   -0.7481    1.1026   -0.3141 H   0  0  0  0  0  0  0  0  0  0  0  0
    1.9298    1.5408   -0.4139 H   0  0  0  0  0  0  0  0  0  0  0  0
    3.6309   -0.8858    0.3664 H   0  0  0  0  0  0  0  0  0  0  0  0
    7.9939    2.7261    0.7535 H   0  0  0  0  0  0  0  0  0  0  0  0
    6.2601    3.0274    0.5752 H   0  0  0  0  0  0  0  0  0  0  0  0
    6.8420    1.9422    1.8449 H   0  0  0  0  0  0  0  0  0  0  0  0
    6.9527    0.7044   -2.2626 H   0  0  0  0  0  0  0  0  0  0  0  0
    6.3297    2.3033   -1.8342 H   0  0  0  0  0  0  0  0  0  0  0  0
    8.0645    1.9742   -1.7297 H   0  0  0  0  0  0  0  0  0  0  0  0
    7.8080   -0.3113    1.2304 H   0  0  0  0  0  0  0  0  0  0  0  0
    7.8563   -0.8194   -0.4580 H   0  0  0  0  0  0  0  0  0  0  0  0
    8.9533    0.4465    0.1138 H   0  0  0  0  0  0  0  0  0  0  0  0
    1.6692   -2.3175    0.7203 H   0  0  0  0  0  0  0  0  0  0  0  0
   -2.8884   -5.3534    1.5987 H   0  0  0  0  0  0  0  0  0  0  0  0
   -5.4626   -4.5646    1.3746 H   0  0  0  0  0  0  0  0  0  0  0  0
   -5.3802   -1.9866    0.6026 H   0  0  0  0  0  0  0  0  0  0  0  0
   -2.4926   -0.8672   -2.4708 H   0  0  0  0  0  0  0  0  0  0  0  0
   -3.9613   -1.7592   -2.0992 H   0  0  0  0  0  0  0  0  0  0  0  0
   -3.9912   -0.4927   -3.3322 H   0  0  0  0  0  0  0  0  0  0  0  0
   -5.0753    1.4602   -2.6289 H   0  0  0  0  0  0  0  0  0  0  0  0
  1  2  1  0  0  0  0
  2  3  2  0  0  0  0
  3  4  1  0  0  0  0
  4  5  1  0  0  0  0
  4  6  2  0  0  0  0
  6  7  1  0  0  0  0
  7  8  2  0  0  0  0
  8  9  1  0  0  0  0
  9 10  2  0  0  0  0
 10 11  1  0  0  0  0
 11 12  2  0  0  0  0
 12 13  1  0  0  0  0
 13 14  2  0  0  0  0
 13 15  1  0  0  0  0
 15 16  1  0  0  0  0
 16 17  1  0  0  0  0
 16 18  1  0  0  0  0
 16 19  1  0  0  0  0
 10 20  1  0  0  0  0
 20 21  2  0  0  0  0
 21 22  1  0  0  0  0
 22 23  1  0  0  0  0
 22 24  1  0  0  0  0
 22 25  1  0  0  0  0
 25 26  1  0  0  0  0
 26 27  2  0  0  0  0
 27 28  1  0  0  0  0
 28 29  2  0  0  0  0
  6 30  1  0  0  0  0
 30 31  1  0  0  0  0
 30 32  2  0  0  0  0
 32  2  1  0  0  0  0
 29  7  1  0  0  0  0
 21  8  1  0  0  0  0
 29 25  1  0  0  0  0
  1 33  1  0  0  0  0
  1 34  1  0  0  0  0
  1 35  1  0  0  0  0
  3 36  1  0  0  0  0
  5 37  1  0  0  0  0
  5 38  1  0  0  0  0
  5 39  1  0  0  0  0
  9 40  1  0  0  0  0
 11 41  1  0  0  0  0
 12 42  1  0  0  0  0
 17 43  1  0  0  0  0
 17 44  1  0  0  0  0
 17 45  1  0  0  0  0
 18 46  1  0  0  0  0
 18 47  1  0  0  0  0
 18 48  1  0  0  0  0
 19 49  1  0  0  0  0
 19 50  1  0  0  0  0
 19 51  1  0  0  0  0
 20 52  1  0  0  0  0
 26 53  1  0  0  0  0
 27 54  1  0  0  0  0
 28 55  1  0  0  0  0
 31 56  1  0  0  0  0
 31 57  1  0  0  0  0
 31 58  1  0  0  0  0
 32 59  1  0  0  0  0
M  CHG  1  21   1
M  CHG  1  22  -1
M  END
