
  xtb     03022214013D
 energy: -69.484101055090 gnorm: 0.000122088241 xtb: 6.4.1 (afa7bdf)
 44 47  0     0  0            999 V2000
   -5.3142   -0.6701    1.6128 C   0  0  0  0  0  0  0  0  0  0  0  0
   -4.9891   -1.0020    0.1559 C   0  0  0  0  0  0  0  0  0  0  0  0
   -4.3173    0.0868   -0.5207 N   0  0  0  0  0  0  0  0  0  0  0  0
   -5.1766    1.0204   -1.2162 C   0  0  0  0  0  0  0  0  0  0  0  0
   -5.3881    0.6359   -2.6816 C   0  0  0  0  0  0  0  0  0  0  0  0
   -2.9639    0.2249   -0.4923 C   0  0  0  0  0  0  0  0  0  0  0  0
   -2.3054    1.2030   -1.2780 C   0  0  0  0  0  0  0  0  0  0  0  0
   -0.9463    1.3474   -1.2537 C   0  0  0  0  0  0  0  0  0  0  0  0
   -0.1378    0.5246   -0.4540 C   0  0  0  0  0  0  0  0  0  0  0  0
    1.2704    0.6075   -0.3746 C   0  0  0  0  0  0  0  0  0  0  0  0
    1.9741   -0.2420    0.4332 C   0  0  0  0  0  0  0  0  0  0  0  0
    3.4137   -0.1553    0.5142 C   0  0  0  0  0  0  0  0  0  0  0  0
    4.1356    0.7250   -0.1423 N   0  0  0  0  0  0  0  0  0  0  0  0
    5.4295    0.4710    0.2065 C   0  0  0  0  0  0  0  0  0  0  0  0
    6.6101    1.0960   -0.1872 C   0  0  0  0  0  0  0  0  0  0  0  0
    7.7921    0.6181    0.3340 C   0  0  0  0  0  0  0  0  0  0  0  0
    7.8223   -0.4566    1.2282 C   0  0  0  0  0  0  0  0  0  0  0  0
    6.6674   -1.0923    1.6349 C   0  0  0  0  0  0  0  0  0  0  0  0
    5.4721   -0.6186    1.1170 C   0  0  0  0  0  0  0  0  0  0  0  0
    4.1712   -0.9901    1.2889 N   0  0  0  0  0  0  0  0  0  0  0  0
    1.2747   -1.2469    1.2229 C   0  0  0  0  0  0  0  0  0  0  0  0
    1.7991   -2.0524    1.9668 O   0  0  0  0  0  0  0  0  0  0  0  0
   -0.0809   -1.2915    1.1228 O   0  0  0  0  0  0  0  0  0  0  0  0
   -0.7861   -0.4535    0.3229 C   0  0  0  0  0  0  0  0  0  0  0  0
   -2.1613   -0.5968    0.3111 C   0  0  0  0  0  0  0  0  0  0  0  0
   -5.8234   -1.5080    2.0811 H   0  0  0  0  0  0  0  0  0  0  0  0
   -5.9603    0.2029    1.6685 H   0  0  0  0  0  0  0  0  0  0  0  0
   -4.4059   -0.4566    2.1695 H   0  0  0  0  0  0  0  0  0  0  0  0
   -5.9167   -1.2104   -0.3838 H   0  0  0  0  0  0  0  0  0  0  0  0
   -4.3734   -1.9022    0.1012 H   0  0  0  0  0  0  0  0  0  0  0  0
   -4.7619    2.0283   -1.1451 H   0  0  0  0  0  0  0  0  0  0  0  0
   -6.1420    1.0326   -0.7036 H   0  0  0  0  0  0  0  0  0  0  0  0
   -5.8446   -0.3485   -2.7530 H   0  0  0  0  0  0  0  0  0  0  0  0
   -4.4402    0.6091   -3.2124 H   0  0  0  0  0  0  0  0  0  0  0  0
   -6.0417    1.3564   -3.1659 H   0  0  0  0  0  0  0  0  0  0  0  0
   -2.8734    1.8499   -1.9248 H   0  0  0  0  0  0  0  0  0  0  0  0
   -0.4707    2.1010   -1.8630 H   0  0  0  0  0  0  0  0  0  0  0  0
    1.8100    1.3435   -0.9510 H   0  0  0  0  0  0  0  0  0  0  0  0
    6.5860    1.9246   -0.8769 H   0  0  0  0  0  0  0  0  0  0  0  0
    8.7253    1.0814    0.0482 H   0  0  0  0  0  0  0  0  0  0  0  0
    8.7751   -0.7949    1.6081 H   0  0  0  0  0  0  0  0  0  0  0  0
    6.6900   -1.9219    2.3256 H   0  0  0  0  0  0  0  0  0  0  0  0
    3.7777   -1.7231    1.8628 H   0  0  0  0  0  0  0  0  0  0  0  0
   -2.5750   -1.3568    0.9503 H   0  0  0  0  0  0  0  0  0  0  0  0
  1  2  1  0  0  0  0
  2  3  1  0  0  0  0
  3  4  1  0  0  0  0
  4  5  1  0  0  0  0
  3  6  1  0  0  0  0
  6  7  2  0  0  0  0
  7  8  1  0  0  0  0
  8  9  2  0  0  0  0
  9 10  1  0  0  0  0
 10 11  2  0  0  0  0
 11 12  1  0  0  0  0
 12 13  2  0  0  0  0
 13 14  1  0  0  0  0
 14 15  2  0  0  0  0
 15 16  1  0  0  0  0
 16 17  2  0  0  0  0
 17 18  1  0  0  0  0
 18 19  2  0  0  0  0
 19 20  1  0  0  0  0
 11 21  1  0  0  0  0
 21 22  2  0  0  0  0
 21 23  1  0  0  0  0
 23 24  1  0  0  0  0
 24 25  2  0  0  0  0
 25  6  1  0  0  0  0
 24  9  1  0  0  0  0
 20 12  1  0  0  0  0
 19 14  1  0  0  0  0
  1 26  1  0  0  0  0
  1 27  1  0  0  0  0
  1 28  1  0  0  0  0
  2 29  1  0  0  0  0
  2 30  1  0  0  0  0
  4 31  1  0  0  0  0
  4 32  1  0  0  0  0
  5 33  1  0  0  0  0
  5 34  1  0  0  0  0
  5 35  1  0  0  0  0
  7 36  1  0  0  0  0
  8 37  1  0  0  0  0
 10 38  1  0  0  0  0
 15 39  1  0  0  0  0
 16 40  1  0  0  0  0
 17 41  1  0  0  0  0
 18 42  1  0  0  0  0
 20 43  1  0  0  0  0
 25 44  1  0  0  0  0
M  END
