
  xtb     03022215383D
 energy: -50.634829415788 gnorm: 0.000074440229 xtb: 6.4.1 (afa7bdf)
 26 29  0     0  0            999 V2000
   -5.0787   -0.2819    0.6512 C   0  0  0  0  0  0  0  0  0  0  0  0
   -5.1481   -0.0619   -0.6917 C   0  0  0  0  0  0  0  0  0  0  0  0
   -3.6028    0.1210   -1.4090 S   0  0  0  0  0  0  0  0  0  0  0  0
   -2.8270   -0.1025    0.1327 C   0  0  0  0  0  0  0  0  0  0  0  0
   -1.3992   -0.0613    0.2413 C   0  0  0  0  0  0  0  0  0  0  0  0
   -0.6931   -0.2285    1.4248 C   0  0  0  0  0  0  0  0  0  0  0  0
    0.6318   -0.1960    1.5600 N   0  0  0  0  0  0  0  0  0  0  0  0
    1.4367    0.0069    0.5381 C   0  0  0  0  0  0  0  0  0  0  0  0
    2.8471    0.0293    0.7553 C   0  0  0  0  0  0  0  0  0  0  0  0
    3.8533    0.2235   -0.1633 C   0  0  0  0  0  0  0  0  0  0  0  0
    5.1279    0.1797    0.4188 C   0  0  0  0  0  0  0  0  0  0  0  0
    5.0819   -0.0455    1.7641 C   0  0  0  0  0  0  0  0  0  0  0  0
    3.4824   -0.2095    2.3539 S   0  0  0  0  0  0  0  0  0  0  0  0
    0.8626    0.1977   -0.7552 C   0  0  0  0  0  0  0  0  0  0  0  0
    1.3626    0.4174   -1.9538 N   0  0  0  0  0  0  0  0  0  0  0  0
    0.3218    0.5112   -2.7789 O   0  0  0  0  0  0  0  0  0  0  0  0
   -0.8485    0.3606   -2.1642 N   0  0  0  0  0  0  0  0  0  0  0  0
   -0.5716    0.1608   -0.8909 C   0  0  0  0  0  0  0  0  0  0  0  0
   -3.7585   -0.3058    1.1250 C   0  0  0  0  0  0  0  0  0  0  0  0
   -5.9408   -0.4218    1.2784 H   0  0  0  0  0  0  0  0  0  0  0  0
   -6.0250    0.0035   -1.3048 H   0  0  0  0  0  0  0  0  0  0  0  0
   -1.2198   -0.4042    2.3518 H   0  0  0  0  0  0  0  0  0  0  0  0
    3.6588    0.3887   -1.2073 H   0  0  0  0  0  0  0  0  0  0  0  0
    6.0422    0.3091   -0.1319 H   0  0  0  0  0  0  0  0  0  0  0  0
    5.9064   -0.1243    2.4451 H   0  0  0  0  0  0  0  0  0  0  0  0
   -3.5022   -0.4663    2.1563 H   0  0  0  0  0  0  0  0  0  0  0  0
  1  2  2  0  0  0  0
  2  3  1  0  0  0  0
  3  4  1  0  0  0  0
  4  5  1  0  0  0  0
  5  6  2  0  0  0  0
  6  7  1  0  0  0  0
  7  8  2  0  0  0  0
  8  9  1  0  0  0  0
  9 10  2  0  0  0  0
 10 11  1  0  0  0  0
 11 12  2  0  0  0  0
 12 13  1  0  0  0  0
  8 14  1  0  0  0  0
 14 15  2  0  0  0  0
 15 16  1  0  0  0  0
 16 17  1  0  0  0  0
 17 18  2  0  0  0  0
  4 19  2  0  0  0  0
 19  1  1  0  0  0  0
 18  5  1  0  0  0  0
 13  9  1  0  0  0  0
 18 14  1  0  0  0  0
  1 20  1  0  0  0  0
  2 21  1  0  0  0  0
  6 22  1  0  0  0  0
 10 23  1  0  0  0  0
 11 24  1  0  0  0  0
 12 25  1  0  0  0  0
 19 26  1  0  0  0  0
M  END
