
  xtb     03022215303D
 energy: -59.752589463424 gnorm: 0.000133946912 xtb: 6.4.1 (afa7bdf)
 40 42  0     0  0            999 V2000
    4.1731    0.6808    0.5653 C   0  0  0  0  0  0  0  0  0  0  0  0
    3.8581   -0.3843   -0.3609 N   0  0  0  0  0  0  0  0  0  0  0  0
    3.9603   -1.6862    0.2598 C   0  0  0  0  0  0  0  0  0  0  0  0
    2.6373   -0.1775   -1.1082 C   0  0  0  0  0  0  0  0  0  0  0  0
    1.3285   -0.1626   -0.2983 C   0  0  0  0  0  0  0  0  0  0  0  0
    0.1304    0.0635   -1.2288 C   0  0  0  0  0  0  0  0  0  0  0  0
   -1.1510    0.1579   -0.5572 N   0  0  0  0  0  0  0  0  0  0  0  0
   -1.8566   -1.0190   -0.2905 C   0  0  0  0  0  0  0  0  0  0  0  0
   -1.2387   -2.2692   -0.3710 C   0  0  0  0  0  0  0  0  0  0  0  0
   -1.9285   -3.4432   -0.1193 C   0  0  0  0  0  0  0  0  0  0  0  0
   -3.2604   -3.4131    0.2433 C   0  0  0  0  0  0  0  0  0  0  0  0
   -3.8954   -2.1879    0.3326 C   0  0  0  0  0  0  0  0  0  0  0  0
   -3.2120   -1.0160    0.0561 C   0  0  0  0  0  0  0  0  0  0  0  0
   -4.1657    0.4738    0.0943 S   0  0  0  0  0  0  0  0  0  0  0  0
   -2.8760    1.6590    0.3172 C   0  0  0  0  0  0  0  0  0  0  0  0
   -3.2529    2.8909    0.8233 C   0  0  0  0  0  0  0  0  0  0  0  0
   -2.3432    3.9265    0.9428 C   0  0  0  0  0  0  0  0  0  0  0  0
   -1.0428    3.6854    0.5467 C   0  0  0  0  0  0  0  0  0  0  0  0
    0.1391    4.9451    0.6539 Cl  0  0  0  0  0  0  0  0  0  0  0  0
   -0.6449    2.4489    0.0645 C   0  0  0  0  0  0  0  0  0  0  0  0
   -1.5526    1.3939   -0.0627 C   0  0  0  0  0  0  0  0  0  0  0  0
    3.5256    0.6959    1.4550 H   0  0  0  0  0  0  0  0  0  0  0  0
    5.2030    0.5561    0.8995 H   0  0  0  0  0  0  0  0  0  0  0  0
    4.0904    1.6384    0.0541 H   0  0  0  0  0  0  0  0  0  0  0  0
    3.7254   -2.4543   -0.4754 H   0  0  0  0  0  0  0  0  0  0  0  0
    3.2981   -1.8124    1.1299 H   0  0  0  0  0  0  0  0  0  0  0  0
    4.9874   -1.8312    0.5942 H   0  0  0  0  0  0  0  0  0  0  0  0
    2.7393    0.7755   -1.6372 H   0  0  0  0  0  0  0  0  0  0  0  0
    2.5800   -0.9693   -1.8621 H   0  0  0  0  0  0  0  0  0  0  0  0
    1.2161   -1.1075    0.2337 H   0  0  0  0  0  0  0  0  0  0  0  0
    1.3714    0.6259    0.4533 H   0  0  0  0  0  0  0  0  0  0  0  0
    0.2771    0.9848   -1.7998 H   0  0  0  0  0  0  0  0  0  0  0  0
    0.0690   -0.7510   -1.9561 H   0  0  0  0  0  0  0  0  0  0  0  0
   -0.2006   -2.3516   -0.6413 H   0  0  0  0  0  0  0  0  0  0  0  0
   -1.4077   -4.3849   -0.2058 H   0  0  0  0  0  0  0  0  0  0  0  0
   -3.8015   -4.3232    0.4476 H   0  0  0  0  0  0  0  0  0  0  0  0
   -4.9397   -2.1232    0.5973 H   0  0  0  0  0  0  0  0  0  0  0  0
   -4.2844    3.0387    1.1026 H   0  0  0  0  0  0  0  0  0  0  0  0
   -2.6419    4.8886    1.3236 H   0  0  0  0  0  0  0  0  0  0  0  0
    0.3869    2.3382   -0.2158 H   0  0  0  0  0  0  0  0  0  0  0  0
  1  2  1  0  0  0  0
  2  3  1  0  0  0  0
  2  4  1  0  0  0  0
  4  5  1  0  0  0  0
  5  6  1  0  0  0  0
  6  7  1  0  0  0  0
  7  8  1  0  0  0  0
  8  9  2  0  0  0  0
  9 10  1  0  0  0  0
 10 11  2  0  0  0  0
 11 12  1  0  0  0  0
 12 13  2  0  0  0  0
 13 14  1  0  0  0  0
 14 15  1  0  0  0  0
 15 16  2  0  0  0  0
 16 17  1  0  0  0  0
 17 18  2  0  0  0  0
 18 19  1  0  0  0  0
 18 20  1  0  0  0  0
 20 21  2  0  0  0  0
 21  7  1  0  0  0  0
 13  8  1  0  0  0  0
 21 15  1  0  0  0  0
  1 22  1  0  0  0  0
  1 23  1  0  0  0  0
  1 24  1  0  0  0  0
  3 25  1  0  0  0  0
  3 26  1  0  0  0  0
  3 27  1  0  0  0  0
  4 28  1  0  0  0  0
  4 29  1  0  0  0  0
  5 30  1  0  0  0  0
  5 31  1  0  0  0  0
  6 32  1  0  0  0  0
  6 33  1  0  0  0  0
  9 34  1  0  0  0  0
 10 35  1  0  0  0  0
 11 36  1  0  0  0  0
 12 37  1  0  0  0  0
 16 38  1  0  0  0  0
 17 39  1  0  0  0  0
 20 40  1  0  0  0  0
M  END
