
  xtb     03022214153D
 energy: -50.695949236327 gnorm: 0.000155777877 xtb: 6.4.1 (afa7bdf)
 28 30  0     0  0            999 V2000
   -4.1084   -1.4741   -0.1485 C   0  0  0  0  0  0  0  0  0  0  0  0
   -2.7653   -0.8182   -0.0869 C   0  0  0  0  0  0  0  0  0  0  0  0
   -2.6977    0.5913   -0.0003 C   0  0  0  0  0  0  0  0  0  0  0  0
   -1.5138    1.2763    0.0581 C   0  0  0  0  0  0  0  0  0  0  0  0
   -1.4464    2.7659    0.1462 C   0  0  0  0  0  0  0  0  0  0  0  0
   -0.3070    0.5320    0.0302 C   0  0  0  0  0  0  0  0  0  0  0  0
    0.8757    1.1721    0.0863 N   0  0  0  0  0  0  0  0  0  0  0  0
    1.9616    0.4355    0.0561 C   0  0  0  0  0  0  0  0  0  0  0  0
    3.1738    1.0710    0.1117 N   0  0  0  0  0  0  0  0  0  0  0  0
    4.3882    0.4300    0.0882 C   0  0  0  0  0  0  0  0  0  0  0  0
    5.4389    1.0162    0.1373 O   0  0  0  0  0  0  0  0  0  0  0  0
    4.3040   -0.9460    0.0036 N   0  0  0  0  0  0  0  0  0  0  0  0
    3.1752   -1.7539   -0.0622 C   0  0  0  0  0  0  0  0  0  0  0  0
    3.2769   -2.9506   -0.1356 O   0  0  0  0  0  0  0  0  0  0  0  0
    1.9136   -0.9853   -0.0316 C   0  0  0  0  0  0  0  0  0  0  0  0
    0.7682   -1.6191   -0.0855 N   0  0  0  0  0  0  0  0  0  0  0  0
   -0.3598   -0.8926   -0.0569 C   0  0  0  0  0  0  0  0  0  0  0  0
   -1.6066   -1.5464   -0.1142 C   0  0  0  0  0  0  0  0  0  0  0  0
   -4.6989   -1.2081    0.7271 H   0  0  0  0  0  0  0  0  0  0  0  0
   -4.0120   -2.5551   -0.1915 H   0  0  0  0  0  0  0  0  0  0  0  0
   -4.6519   -1.1354   -1.0298 H   0  0  0  0  0  0  0  0  0  0  0  0
   -3.6270    1.1439    0.0198 H   0  0  0  0  0  0  0  0  0  0  0  0
   -0.9347    3.1651   -0.7275 H   0  0  0  0  0  0  0  0  0  0  0  0
   -2.4410    3.1983    0.2072 H   0  0  0  0  0  0  0  0  0  0  0  0
   -0.8696    3.0597    1.0206 H   0  0  0  0  0  0  0  0  0  0  0  0
    3.1761    2.0814    0.1729 H   0  0  0  0  0  0  0  0  0  0  0  0
    5.1954   -1.4308   -0.0147 H   0  0  0  0  0  0  0  0  0  0  0  0
   -1.6075   -2.6228   -0.1797 H   0  0  0  0  0  0  0  0  0  0  0  0
  1  2  1  0  0  0  0
  2  3  2  0  0  0  0
  3  4  1  0  0  0  0
  4  5  1  0  0  0  0
  4  6  2  0  0  0  0
  6  7  1  0  0  0  0
  7  8  2  0  0  0  0
  8  9  1  0  0  0  0
  9 10  1  0  0  0  0
 10 11  2  0  0  0  0
 10 12  1  0  0  0  0
 12 13  1  0  0  0  0
 13 14  2  0  0  0  0
 13 15  1  0  0  0  0
 15 16  2  0  0  0  0
 16 17  1  0  0  0  0
 17 18  2  0  0  0  0
 18  2  1  0  0  0  0
 17  6  1  0  0  0  0
 15  8  1  0  0  0  0
  1 19  1  0  0  0  0
  1 20  1  0  0  0  0
  1 21  1  0  0  0  0
  3 22  1  0  0  0  0
  5 23  1  0  0  0  0
  5 24  1  0  0  0  0
  5 25  1  0  0  0  0
  9 26  1  0  0  0  0
 12 27  1  0  0  0  0
 18 28  1  0  0  0  0
M  END
