
  xtb     03022213223D
 energy: -61.958847173367 gnorm: 0.000183596861 xtb: 6.4.1 (afa7bdf)
 45 46  0     0  0            999 V2000
   -1.6171    2.2364    1.7020 C   0  0  0  0  0  0  0  0  0  0  0  0
   -2.2444    1.2353    0.7750 C   0  0  0  0  0  0  0  0  0  0  0  0
   -3.6088    1.0446    0.8263 C   0  0  0  0  0  0  0  0  0  0  0  0
   -4.2570    0.1144    0.0024 C   0  0  0  0  0  0  0  0  0  0  0  0
   -5.6105   -0.0952    0.0882 N   0  0  0  0  0  0  0  0  0  0  0  0
   -6.2630   -0.9978   -0.8268 C   0  0  0  0  0  0  0  0  0  0  0  0
   -6.4323    0.8136    0.8497 C   0  0  0  0  0  0  0  0  0  0  0  0
   -3.4566   -0.5982   -0.8968 C   0  0  0  0  0  0  0  0  0  0  0  0
   -2.0845   -0.4371   -0.9555 C   0  0  0  0  0  0  0  0  0  0  0  0
   -1.3387   -1.2196   -1.9979 C   0  0  0  0  0  0  0  0  0  0  0  0
   -1.4450    0.4779   -0.1030 C   0  0  0  0  0  0  0  0  0  0  0  0
   -0.0123    0.6995   -0.1060 C   0  0  0  0  0  0  0  0  0  0  0  0
    0.9492   -0.2376   -0.2160 C   0  0  0  0  0  0  0  0  0  0  0  0
    2.3427    0.0745   -0.2010 C   0  0  0  0  0  0  0  0  0  0  0  0
    3.3121   -0.8602   -0.2708 C   0  0  0  0  0  0  0  0  0  0  0  0
    4.7368   -0.6354   -0.2581 C   0  0  0  0  0  0  0  0  0  0  0  0
    5.5970   -1.7409   -0.3340 C   0  0  0  0  0  0  0  0  0  0  0  0
    6.9643   -1.5902   -0.3249 C   0  0  0  0  0  0  0  0  0  0  0  0
    7.5214   -0.3117   -0.2387 C   0  0  0  0  0  0  0  0  0  0  0  0
    8.9214   -0.1460   -0.2286 C   0  0  0  0  0  0  0  0  0  0  0  0
   10.0612   -0.0114   -0.2198 N   0  0  0  0  0  0  0  0  0  0  0  0
    6.6807    0.8023   -0.1628 C   0  0  0  0  0  0  0  0  0  0  0  0
    5.3148    0.6390   -0.1725 C   0  0  0  0  0  0  0  0  0  0  0  0
   -1.1900    3.0667    1.1389 H   0  0  0  0  0  0  0  0  0  0  0  0
   -2.3583    2.6398    2.3877 H   0  0  0  0  0  0  0  0  0  0  0  0
   -0.8194    1.7780    2.2843 H   0  0  0  0  0  0  0  0  0  0  0  0
   -4.1759    1.6322    1.5297 H   0  0  0  0  0  0  0  0  0  0  0  0
   -6.2122   -0.6455   -1.8645 H   0  0  0  0  0  0  0  0  0  0  0  0
   -7.3103   -1.0982   -0.5503 H   0  0  0  0  0  0  0  0  0  0  0  0
   -5.8068   -1.9884   -0.7714 H   0  0  0  0  0  0  0  0  0  0  0  0
   -7.4777    0.5348    0.7418 H   0  0  0  0  0  0  0  0  0  0  0  0
   -6.1794    0.7641    1.9123 H   0  0  0  0  0  0  0  0  0  0  0  0
   -6.3168    1.8493    0.5107 H   0  0  0  0  0  0  0  0  0  0  0  0
   -3.9060   -1.2940   -1.5866 H   0  0  0  0  0  0  0  0  0  0  0  0
   -1.9814   -1.4040   -2.8568 H   0  0  0  0  0  0  0  0  0  0  0  0
   -1.0305   -2.1881   -1.6036 H   0  0  0  0  0  0  0  0  0  0  0  0
   -0.4509   -0.6884   -2.3315 H   0  0  0  0  0  0  0  0  0  0  0  0
    0.3038    1.7269    0.0346 H   0  0  0  0  0  0  0  0  0  0  0  0
    0.6887   -1.2837   -0.2828 H   0  0  0  0  0  0  0  0  0  0  0  0
    2.5956    1.1241   -0.1297 H   0  0  0  0  0  0  0  0  0  0  0  0
    3.0119   -1.8991   -0.3428 H   0  0  0  0  0  0  0  0  0  0  0  0
    5.1721   -2.7326   -0.4007 H   0  0  0  0  0  0  0  0  0  0  0  0
    7.6143   -2.4513   -0.3835 H   0  0  0  0  0  0  0  0  0  0  0  0
    7.1144    1.7898   -0.0964 H   0  0  0  0  0  0  0  0  0  0  0  0
    4.6840    1.5122   -0.1130 H   0  0  0  0  0  0  0  0  0  0  0  0
  1  2  1  0  0  0  0
  2  3  2  0  0  0  0
  3  4  1  0  0  0  0
  4  5  1  0  0  0  0
  5  6  1  0  0  0  0
  5  7  1  0  0  0  0
  4  8  2  0  0  0  0
  8  9  1  0  0  0  0
  9 10  1  0  0  0  0
  9 11  2  0  0  0  0
 11 12  1  0  0  0  0
 12 13  2  0  0  0  0
 13 14  1  0  0  0  0
 14 15  2  0  0  0  0
 15 16  1  0  0  0  0
 16 17  2  0  0  0  0
 17 18  1  0  0  0  0
 18 19  2  0  0  0  0
 19 20  1  0  0  0  0
 20 21  3  0  0  0  0
 19 22  1  0  0  0  0
 22 23  2  0  0  0  0
 11  2  1  0  0  0  0
 23 16  1  0  0  0  0
  1 24  1  0  0  0  0
  1 25  1  0  0  0  0
  1 26  1  0  0  0  0
  3 27  1  0  0  0  0
  6 28  1  0  0  0  0
  6 29  1  0  0  0  0
  6 30  1  0  0  0  0
  7 31  1  0  0  0  0
  7 32  1  0  0  0  0
  7 33  1  0  0  0  0
  8 34  1  0  0  0  0
 10 35  1  0  0  0  0
 10 36  1  0  0  0  0
 10 37  1  0  0  0  0
 12 38  1  0  0  0  0
 13 39  1  0  0  0  0
 14 40  1  0  0  0  0
 15 41  1  0  0  0  0
 17 42  1  0  0  0  0
 18 43  1  0  0  0  0
 22 44  1  0  0  0  0
 23 45  1  0  0  0  0
M  END
