
  xtb     03022213403D
 energy: -55.009724895528 gnorm: 0.000291364579 xtb: 6.4.1 (afa7bdf)
 33 36  0     0  0            999 V2000
    6.6294   -0.0899    0.5818 N   0  0  0  0  0  0  0  0  0  0  0  0
    5.4876   -0.0742    0.4806 C   0  0  0  0  0  0  0  0  0  0  0  0
    4.0843   -0.0537    0.3573 C   0  0  0  0  0  0  0  0  0  0  0  0
    3.4457    0.0161   -0.8870 C   0  0  0  0  0  0  0  0  0  0  0  0
    2.1360    0.0340   -0.9960 N   0  0  0  0  0  0  0  0  0  0  0  0
    1.4182   -0.0171    0.1230 C   0  0  0  0  0  0  0  0  0  0  0  0
   -0.0545    0.0016   -0.0060 C   0  0  0  0  0  0  0  0  0  0  0  0
   -0.7485   -1.2083   -0.1185 C   0  0  0  0  0  0  0  0  0  0  0  0
   -0.0902   -2.4651   -0.1151 C   0  0  0  0  0  0  0  0  0  0  0  0
   -0.7939   -3.6248   -0.2265 C   0  0  0  0  0  0  0  0  0  0  0  0
   -2.1991   -3.6018   -0.3484 C   0  0  0  0  0  0  0  0  0  0  0  0
   -2.8675   -2.4168   -0.3561 C   0  0  0  0  0  0  0  0  0  0  0  0
   -2.1728   -1.1853   -0.2424 C   0  0  0  0  0  0  0  0  0  0  0  0
   -2.8387    0.0364   -0.2481 C   0  0  0  0  0  0  0  0  0  0  0  0
   -2.1517    1.2411   -0.1361 C   0  0  0  0  0  0  0  0  0  0  0  0
   -2.8250    2.4897   -0.1405 C   0  0  0  0  0  0  0  0  0  0  0  0
   -2.1363    3.6577   -0.0294 C   0  0  0  0  0  0  0  0  0  0  0  0
   -0.7309    3.6456    0.0928 C   0  0  0  0  0  0  0  0  0  0  0  0
   -0.0474    2.4687    0.1011 C   0  0  0  0  0  0  0  0  0  0  0  0
   -0.7273    1.2286   -0.0123 C   0  0  0  0  0  0  0  0  0  0  0  0
    1.9283   -0.0843    1.3500 N   0  0  0  0  0  0  0  0  0  0  0  0
    3.2369   -0.1023    1.4711 C   0  0  0  0  0  0  0  0  0  0  0  0
    4.0094    0.0579   -1.8105 H   0  0  0  0  0  0  0  0  0  0  0  0
    0.9859   -2.4876   -0.0221 H   0  0  0  0  0  0  0  0  0  0  0  0
   -0.2818   -4.5757   -0.2226 H   0  0  0  0  0  0  0  0  0  0  0  0
   -2.7351   -4.5353   -0.4354 H   0  0  0  0  0  0  0  0  0  0  0  0
   -3.9438   -2.3894   -0.4493 H   0  0  0  0  0  0  0  0  0  0  0  0
   -3.9158    0.0498   -0.3417 H   0  0  0  0  0  0  0  0  0  0  0  0
   -3.9016    2.4891   -0.2345 H   0  0  0  0  0  0  0  0  0  0  0  0
   -2.6561    4.6043   -0.0333 H   0  0  0  0  0  0  0  0  0  0  0  0
   -0.2025    4.5836    0.1799 H   0  0  0  0  0  0  0  0  0  0  0  0
    1.0289    2.4643    0.1949 H   0  0  0  0  0  0  0  0  0  0  0  0
    3.6296   -0.1568    2.4786 H   0  0  0  0  0  0  0  0  0  0  0  0
  1  2  3  0  0  0  0
  2  3  1  0  0  0  0
  3  4  2  0  0  0  0
  4  5  1  0  0  0  0
  5  6  2  0  0  0  0
  6  7  1  0  0  0  0
  7  8  1  0  0  0  0
  8  9  2  0  0  0  0
  9 10  1  0  0  0  0
 10 11  2  0  0  0  0
 11 12  1  0  0  0  0
 12 13  2  0  0  0  0
 13 14  1  0  0  0  0
 14 15  2  0  0  0  0
 15 16  1  0  0  0  0
 16 17  2  0  0  0  0
 17 18  1  0  0  0  0
 18 19  2  0  0  0  0
 19 20  1  0  0  0  0
  6 21  1  0  0  0  0
 21 22  2  0  0  0  0
 22  3  1  0  0  0  0
 20  7  2  0  0  0  0
 13  8  1  0  0  0  0
 20 15  1  0  0  0  0
  4 23  1  0  0  0  0
  9 24  1  0  0  0  0
 10 25  1  0  0  0  0
 11 26  1  0  0  0  0
 12 27  1  0  0  0  0
 14 28  1  0  0  0  0
 16 29  1  0  0  0  0
 17 30  1  0  0  0  0
 18 31  1  0  0  0  0
 19 32  1  0  0  0  0
 22 33  1  0  0  0  0
M  END
