
  xtb     03022213383D
 energy: -136.091773834278 gnorm: 0.000081707019 xtb: 6.4.1 (afa7bdf)
 93100  0     0  0            999 V2000
    1.2019   -4.7648    1.7571 C   0  0  0  0  0  0  0  0  0  0  0  0
    0.0530   -3.7491    1.8588 C   0  0  0  0  0  0  0  0  0  0  0  0
   -1.0754   -4.3302    2.7253 C   0  0  0  0  0  0  0  0  0  0  0  0
    0.6435   -2.5252    2.5603 C   0  0  0  0  0  0  0  0  0  0  0  0
    0.3387   -2.2578    3.7033 O   0  0  0  0  0  0  0  0  0  0  0  0
    1.7061   -1.7612    1.8614 C   0  0  0  0  0  0  0  0  0  0  0  0
    2.5960   -1.0437    2.6654 C   0  0  0  0  0  0  0  0  0  0  0  0
    3.6375   -0.3326    2.1105 C   0  0  0  0  0  0  0  0  0  0  0  0
    3.8052   -0.3124    0.7280 C   0  0  0  0  0  0  0  0  0  0  0  0
    4.8850    0.3955    0.1512 N   0  0  0  0  0  0  0  0  0  0  0  0
    5.9278   -0.3187   -0.4274 C   0  0  0  0  0  0  0  0  0  0  0  0
    5.9099   -1.7165   -0.4063 C   0  0  0  0  0  0  0  0  0  0  0  0
    6.9254   -2.4504   -0.9819 C   0  0  0  0  0  0  0  0  0  0  0  0
    7.9889   -1.8018   -1.5823 C   0  0  0  0  0  0  0  0  0  0  0  0
    8.0267   -0.4204   -1.5741 C   0  0  0  0  0  0  0  0  0  0  0  0
    7.0187    0.3429   -1.0000 C   0  0  0  0  0  0  0  0  0  0  0  0
    7.1477    1.8536   -0.9888 C   0  0  0  0  0  0  0  0  0  0  0  0
    8.4303    2.2286   -0.2240 C   0  0  0  0  0  0  0  0  0  0  0  0
    7.2259    2.3565   -2.4419 C   0  0  0  0  0  0  0  0  0  0  0  0
    5.9635    2.5173   -0.3134 C   0  0  0  0  0  0  0  0  0  0  0  0
    5.9205    3.9022   -0.2228 C   0  0  0  0  0  0  0  0  0  0  0  0
    4.8518    4.5686    0.3464 C   0  0  0  0  0  0  0  0  0  0  0  0
    3.7778    3.8387    0.8219 C   0  0  0  0  0  0  0  0  0  0  0  0
    3.7953    2.4621    0.7457 C   0  0  0  0  0  0  0  0  0  0  0  0
    4.8914    1.7838    0.2042 C   0  0  0  0  0  0  0  0  0  0  0  0
    2.9046   -0.9999   -0.0818 C   0  0  0  0  0  0  0  0  0  0  0  0
    1.8679   -1.7196    0.4777 C   0  0  0  0  0  0  0  0  0  0  0  0
   -0.5564   -3.5412    0.4717 C   0  0  0  0  0  0  0  0  0  0  0  0
   -0.2462   -4.2574   -0.4567 O   0  0  0  0  0  0  0  0  0  0  0  0
   -1.6427   -2.5410    0.3266 C   0  0  0  0  0  0  0  0  0  0  0  0
   -1.8157   -1.4378    1.1604 C   0  0  0  0  0  0  0  0  0  0  0  0
   -2.8748   -0.5744    0.9639 C   0  0  0  0  0  0  0  0  0  0  0  0
   -3.7870   -0.7981   -0.0644 C   0  0  0  0  0  0  0  0  0  0  0  0
   -4.8900    0.0696   -0.2395 N   0  0  0  0  0  0  0  0  0  0  0  0
   -5.9199    0.0483    0.6937 C   0  0  0  0  0  0  0  0  0  0  0  0
   -5.8647   -0.8413    1.7708 C   0  0  0  0  0  0  0  0  0  0  0  0
   -6.8673   -0.8771    2.7167 C   0  0  0  0  0  0  0  0  0  0  0  0
   -7.9548   -0.0309    2.6001 C   0  0  0  0  0  0  0  0  0  0  0  0
   -8.0286    0.8256    1.5180 C   0  0  0  0  0  0  0  0  0  0  0  0
   -7.0341    0.8811    0.5505 C   0  0  0  0  0  0  0  0  0  0  0  0
   -7.2021    1.8143   -0.6328 C   0  0  0  0  0  0  0  0  0  0  0  0
   -8.4836    1.4186   -1.3890 C   0  0  0  0  0  0  0  0  0  0  0  0
   -7.3129    3.2596   -0.1138 C   0  0  0  0  0  0  0  0  0  0  0  0
   -6.0267    1.7346   -1.5873 C   0  0  0  0  0  0  0  0  0  0  0  0
   -6.0174    2.5330   -2.7232 C   0  0  0  0  0  0  0  0  0  0  0  0
   -4.9595    2.5334   -3.6126 C   0  0  0  0  0  0  0  0  0  0  0  0
   -3.8625    1.7312   -3.3562 C   0  0  0  0  0  0  0  0  0  0  0  0
   -3.8464    0.9273   -2.2361 C   0  0  0  0  0  0  0  0  0  0  0  0
   -4.9308    0.8979   -1.3541 C   0  0  0  0  0  0  0  0  0  0  0  0
   -3.6082   -1.8865   -0.9148 C   0  0  0  0  0  0  0  0  0  0  0  0
   -2.5444   -2.7407   -0.7222 C   0  0  0  0  0  0  0  0  0  0  0  0
    0.8301   -5.6883    1.3199 H   0  0  0  0  0  0  0  0  0  0  0  0
    1.9993   -4.3855    1.1226 H   0  0  0  0  0  0  0  0  0  0  0  0
    1.6049   -4.9760    2.7450 H   0  0  0  0  0  0  0  0  0  0  0  0
   -1.4647   -5.2403    2.2744 H   0  0  0  0  0  0  0  0  0  0  0  0
   -0.6888   -4.5610    3.7150 H   0  0  0  0  0  0  0  0  0  0  0  0
   -1.8865   -3.6144    2.8358 H   0  0  0  0  0  0  0  0  0  0  0  0
    2.4583   -1.0744    3.7360 H   0  0  0  0  0  0  0  0  0  0  0  0
    4.3311    0.2081    2.7371 H   0  0  0  0  0  0  0  0  0  0  0  0
    5.0947   -2.2351    0.0739 H   0  0  0  0  0  0  0  0  0  0  0  0
    6.8843   -3.5290   -0.9555 H   0  0  0  0  0  0  0  0  0  0  0  0
    8.7878   -2.3641   -2.0409 H   0  0  0  0  0  0  0  0  0  0  0  0
    8.8723    0.0740   -2.0276 H   0  0  0  0  0  0  0  0  0  0  0  0
    9.3059    1.7903   -0.6946 H   0  0  0  0  0  0  0  0  0  0  0  0
    8.5640    3.3064   -0.1951 H   0  0  0  0  0  0  0  0  0  0  0  0
    8.3714    1.8623    0.7992 H   0  0  0  0  0  0  0  0  0  0  0  0
    6.3115    2.0973   -2.9725 H   0  0  0  0  0  0  0  0  0  0  0  0
    8.0649    1.9054   -2.9642 H   0  0  0  0  0  0  0  0  0  0  0  0
    7.3461    3.4358   -2.4738 H   0  0  0  0  0  0  0  0  0  0  0  0
    6.7432    4.4842   -0.6096 H   0  0  0  0  0  0  0  0  0  0  0  0
    4.8534    5.6462    0.4050 H   0  0  0  0  0  0  0  0  0  0  0  0
    2.9212    4.3381    1.2493 H   0  0  0  0  0  0  0  0  0  0  0  0
    2.9438    1.9041    1.1035 H   0  0  0  0  0  0  0  0  0  0  0  0
    3.0299   -0.9697   -1.1540 H   0  0  0  0  0  0  0  0  0  0  0  0
    1.1797   -2.2328   -0.1734 H   0  0  0  0  0  0  0  0  0  0  0  0
   -1.1192   -1.2344    1.9570 H   0  0  0  0  0  0  0  0  0  0  0  0
   -3.0088    0.2792    1.6116 H   0  0  0  0  0  0  0  0  0  0  0  0
   -5.0304   -1.5189    1.8645 H   0  0  0  0  0  0  0  0  0  0  0  0
   -6.7974   -1.5707    3.5412 H   0  0  0  0  0  0  0  0  0  0  0  0
   -8.7441   -0.0454    3.3358 H   0  0  0  0  0  0  0  0  0  0  0  0
   -8.8923    1.4666    1.4272 H   0  0  0  0  0  0  0  0  0  0  0  0
   -9.3537    1.4869   -0.7421 H   0  0  0  0  0  0  0  0  0  0  0  0
   -8.4009    0.3935   -1.7456 H   0  0  0  0  0  0  0  0  0  0  0  0
   -8.6450    2.0674   -2.2453 H   0  0  0  0  0  0  0  0  0  0  0  0
   -6.3998    3.5352    0.4105 H   0  0  0  0  0  0  0  0  0  0  0  0
   -7.4608    3.9569   -0.9337 H   0  0  0  0  0  0  0  0  0  0  0  0
   -8.1475    3.3621    0.5742 H   0  0  0  0  0  0  0  0  0  0  0  0
   -6.8587    3.1789   -2.9236 H   0  0  0  0  0  0  0  0  0  0  0  0
   -4.9872    3.1633   -4.4884 H   0  0  0  0  0  0  0  0  0  0  0  0
   -3.0142    1.7319   -4.0242 H   0  0  0  0  0  0  0  0  0  0  0  0
   -2.9777    0.3190   -2.0368 H   0  0  0  0  0  0  0  0  0  0  0  0
   -4.3109   -2.0536   -1.7176 H   0  0  0  0  0  0  0  0  0  0  0  0
   -2.3979   -3.5929   -1.3689 H   0  0  0  0  0  0  0  0  0  0  0  0
  1  2  1  0  0  0  0
  2  3  1  0  0  0  0
  2  4  1  0  0  0  0
  4  5  2  0  0  0  0
  4  6  1  0  0  0  0
  6  7  2  0  0  0  0
  7  8  1  0  0  0  0
  8  9  2  0  0  0  0
  9 10  1  0  0  0  0
 10 11  1  0  0  0  0
 11 12  2  0  0  0  0
 12 13  1  0  0  0  0
 13 14  2  0  0  0  0
 14 15  1  0  0  0  0
 15 16  2  0  0  0  0
 16 17  1  0  0  0  0
 17 18  1  0  0  0  0
 17 19  1  0  0  0  0
 17 20  1  0  0  0  0
 20 21  2  0  0  0  0
 21 22  1  0  0  0  0
 22 23  2  0  0  0  0
 23 24  1  0  0  0  0
 24 25  2  0  0  0  0
  9 26  1  0  0  0  0
 26 27  2  0  0  0  0
  2 28  1  0  0  0  0
 28 29  2  0  0  0  0
 28 30  1  0  0  0  0
 30 31  2  0  0  0  0
 31 32  1  0  0  0  0
 32 33  2  0  0  0  0
 33 34  1  0  0  0  0
 34 35  1  0  0  0  0
 35 36  2  0  0  0  0
 36 37  1  0  0  0  0
 37 38  2  0  0  0  0
 38 39  1  0  0  0  0
 39 40  2  0  0  0  0
 40 41  1  0  0  0  0
 41 42  1  0  0  0  0
 41 43  1  0  0  0  0
 41 44  1  0  0  0  0
 44 45  2  0  0  0  0
 45 46  1  0  0  0  0
 46 47  2  0  0  0  0
 47 48  1  0  0  0  0
 48 49  2  0  0  0  0
 33 50  1  0  0  0  0
 50 51  2  0  0  0  0
 27  6  1  0  0  0  0
 51 30  1  0  0  0  0
 25 10  1  0  0  0  0
 49 34  1  0  0  0  0
 16 11  1  0  0  0  0
 25 20  1  0  0  0  0
 40 35  1  0  0  0  0
 49 44  1  0  0  0  0
  1 52  1  0  0  0  0
  1 53  1  0  0  0  0
  1 54  1  0  0  0  0
  3 55  1  0  0  0  0
  3 56  1  0  0  0  0
  3 57  1  0  0  0  0
  7 58  1  0  0  0  0
  8 59  1  0  0  0  0
 12 60  1  0  0  0  0
 13 61  1  0  0  0  0
 14 62  1  0  0  0  0
 15 63  1  0  0  0  0
 18 64  1  0  0  0  0
 18 65  1  0  0  0  0
 18 66  1  0  0  0  0
 19 67  1  0  0  0  0
 19 68  1  0  0  0  0
 19 69  1  0  0  0  0
 21 70  1  0  0  0  0
 22 71  1  0  0  0  0
 23 72  1  0  0  0  0
 24 73  1  0  0  0  0
 26 74  1  0  0  0  0
 27 75  1  0  0  0  0
 31 76  1  0  0  0  0
 32 77  1  0  0  0  0
 36 78  1  0  0  0  0
 37 79  1  0  0  0  0
 38 80  1  0  0  0  0
 39 81  1  0  0  0  0
 42 82  1  0  0  0  0
 42 83  1  0  0  0  0
 42 84  1  0  0  0  0
 43 85  1  0  0  0  0
 43 86  1  0  0  0  0
 43 87  1  0  0  0  0
 45 88  1  0  0  0  0
 46 89  1  0  0  0  0
 47 90  1  0  0  0  0
 48 91  1  0  0  0  0
 50 92  1  0  0  0  0
 51 93  1  0  0  0  0
M  END
