
  xtb     03022215293D
 energy: -108.330091484270 gnorm: 0.000159152381 xtb: 6.4.1 (afa7bdf)
 68 74  0     0  0            999 V2000
    4.2877    4.6932   -0.3229 C   0  0  0  0  0  0  0  0  0  0  0  0
    4.9524    3.4525   -0.6348 N   0  0  0  0  0  0  0  0  0  0  0  0
    6.2417    3.5260   -1.2737 C   0  0  0  0  0  0  0  0  0  0  0  0
    4.3470    2.2506   -0.3964 C   0  0  0  0  0  0  0  0  0  0  0  0
    3.2164    2.1530    0.4312 C   0  0  0  0  0  0  0  0  0  0  0  0
    2.6006    0.9473    0.6672 C   0  0  0  0  0  0  0  0  0  0  0  0
    3.0873   -0.2369    0.1058 C   0  0  0  0  0  0  0  0  0  0  0  0
    2.4928   -1.5331    0.3191 C   0  0  0  0  0  0  0  0  0  0  0  0
    1.1793   -1.8244    0.3146 N   0  0  0  0  0  4  0  0  0  0  0  0
    1.0027   -3.1949    0.4090 C   0  0  0  0  0  0  0  0  0  0  0  0
   -0.1482   -3.8121    0.3167 N   0  0  0  0  0  0  0  0  0  0  0  0
   -1.2490   -3.1296    0.1255 C   0  0  0  0  0  0  0  0  0  0  0  0
   -2.5743   -3.6521    0.0677 C   0  0  0  0  0  0  0  0  0  0  0  0
   -3.0784   -4.9481    0.0915 C   0  0  0  0  0  0  0  0  0  0  0  0
   -4.4426   -5.1118   -0.0093 C   0  0  0  0  0  0  0  0  0  0  0  0
   -5.2965   -4.0118   -0.1498 C   0  0  0  0  0  0  0  0  0  0  0  0
   -4.8112   -2.7230   -0.1706 C   0  0  0  0  0  0  0  0  0  0  0  0
   -3.4349   -2.5321   -0.0357 C   0  0  0  0  0  0  0  0  0  0  0  0
   -2.6068   -1.3641   -0.0453 C   0  0  0  0  0  0  0  0  0  0  0  0
   -3.0986   -0.0087   -0.0335 C   0  0  0  0  0  0  0  0  0  0  0  0
   -2.5259    1.0361   -0.7649 C   0  0  0  0  0  0  0  0  0  0  0  0
   -3.0451    2.3075   -0.7163 C   0  0  0  0  0  0  0  0  0  0  0  0
   -4.1588    2.6160    0.0819 C   0  0  0  0  0  0  0  0  0  0  0  0
   -4.6676    3.8835    0.1332 N   0  0  0  0  0  0  0  0  0  0  0  0
   -3.9096    5.0072   -0.3582 C   0  0  0  0  0  0  0  0  0  0  0  0
   -5.9400    4.1534    0.7528 C   0  0  0  0  0  0  0  0  0  0  0  0
   -4.7293    1.5661    0.8204 C   0  0  0  0  0  0  0  0  0  0  0  0
   -4.2179    0.2928    0.7545 C   0  0  0  0  0  0  0  0  0  0  0  0
   -1.3194   -1.7512    0.0104 N   0  0  0  0  0  0  0  0  0  0  0  0
   -0.0349   -0.8767    0.0930 B   0  0  0  0  0  4  0  0  0  0  0  0
   -0.1913    0.0034    1.1493 F   0  0  0  0  0  0  0  0  0  0  0  0
    0.1822   -0.1814   -1.0835 F   0  0  0  0  0  0  0  0  0  0  0  0
    2.2844   -3.8026    0.5531 C   0  0  0  0  0  0  0  0  0  0  0  0
    2.6875   -5.1221    0.7287 C   0  0  0  0  0  0  0  0  0  0  0  0
    4.0357   -5.3727    0.8616 C   0  0  0  0  0  0  0  0  0  0  0  0
    4.9721   -4.3328    0.8396 C   0  0  0  0  0  0  0  0  0  0  0  0
    4.5871   -3.0223    0.6623 C   0  0  0  0  0  0  0  0  0  0  0  0
    3.2289   -2.7491    0.4914 C   0  0  0  0  0  0  0  0  0  0  0  0
    4.2226   -0.1450   -0.7111 C   0  0  0  0  0  0  0  0  0  0  0  0
    4.8308    1.0604   -0.9645 C   0  0  0  0  0  0  0  0  0  0  0  0
    4.7222    5.4943   -0.9184 H   0  0  0  0  0  0  0  0  0  0  0  0
    3.2262    4.6296   -0.5666 H   0  0  0  0  0  0  0  0  0  0  0  0
    4.3899    4.9549    0.7368 H   0  0  0  0  0  0  0  0  0  0  0  0
    6.1704    3.4062   -2.3616 H   0  0  0  0  0  0  0  0  0  0  0  0
    6.9055    2.7550   -0.8799 H   0  0  0  0  0  0  0  0  0  0  0  0
    6.6918    4.4945   -1.0627 H   0  0  0  0  0  0  0  0  0  0  0  0
    2.8226    3.0321    0.9146 H   0  0  0  0  0  0  0  0  0  0  0  0
    1.7490    0.9162    1.3234 H   0  0  0  0  0  0  0  0  0  0  0  0
   -2.4077   -5.7881    0.1784 H   0  0  0  0  0  0  0  0  0  0  0  0
   -4.8675   -6.1049    0.0052 H   0  0  0  0  0  0  0  0  0  0  0  0
   -6.3585   -4.1834   -0.2502 H   0  0  0  0  0  0  0  0  0  0  0  0
   -5.4766   -1.8835   -0.3045 H   0  0  0  0  0  0  0  0  0  0  0  0
   -1.6838    0.8407   -1.4047 H   0  0  0  0  0  0  0  0  0  0  0  0
   -2.5879    3.0707   -1.3247 H   0  0  0  0  0  0  0  0  0  0  0  0
   -4.2787    5.9209    0.1044 H   0  0  0  0  0  0  0  0  0  0  0  0
   -2.8553    4.8999   -0.0987 H   0  0  0  0  0  0  0  0  0  0  0  0
   -3.9948    5.1111   -1.4461 H   0  0  0  0  0  0  0  0  0  0  0  0
   -5.8664    4.1927    1.8465 H   0  0  0  0  0  0  0  0  0  0  0  0
   -6.6663    3.3870    0.4786 H   0  0  0  0  0  0  0  0  0  0  0  0
   -6.3154    5.1119    0.3983 H   0  0  0  0  0  0  0  0  0  0  0  0
   -5.5628    1.7536    1.4783 H   0  0  0  0  0  0  0  0  0  0  0  0
   -4.6529   -0.4794    1.3713 H   0  0  0  0  0  0  0  0  0  0  0  0
    1.9538   -5.9117    0.7659 H   0  0  0  0  0  0  0  0  0  0  0  0
    4.3831   -6.3862    1.0002 H   0  0  0  0  0  0  0  0  0  0  0  0
    6.0183   -4.5681    0.9714 H   0  0  0  0  0  0  0  0  0  0  0  0
    5.3157   -2.2257    0.6718 H   0  0  0  0  0  0  0  0  0  0  0  0
    4.5935   -1.0325   -1.2016 H   0  0  0  0  0  0  0  0  0  0  0  0
    5.6730    1.0819   -1.6374 H   0  0  0  0  0  0  0  0  0  0  0  0
  1  2  1  0  0  0  0
  2  3  1  0  0  0  0
  2  4  1  0  0  0  0
  4  5  2  0  0  0  0
  5  6  1  0  0  0  0
  6  7  2  0  0  0  0
  7  8  1  0  0  0  0
  8  9  2  0  0  0  0
  9 10  1  0  0  0  0
 10 11  2  0  0  0  0
 11 12  1  0  0  0  0
 12 13  2  0  0  0  0
 13 14  1  0  0  0  0
 14 15  2  0  0  0  0
 15 16  1  0  0  0  0
 16 17  2  0  0  0  0
 17 18  1  0  0  0  0
 18 19  2  0  0  0  0
 19 20  1  0  0  0  0
 20 21  2  0  0  0  0
 21 22  1  0  0  0  0
 22 23  2  0  0  0  0
 23 24  1  0  0  0  0
 24 25  1  0  0  0  0
 24 26  1  0  0  0  0
 23 27  1  0  0  0  0
 27 28  2  0  0  0  0
 19 29  1  0  0  0  0
 29 30  1  0  0  0  0
 30 31  1  0  0  0  0
 30 32  1  0  0  0  0
 10 33  1  0  0  0  0
 33 34  2  0  0  0  0
 34 35  1  0  0  0  0
 35 36  2  0  0  0  0
 36 37  1  0  0  0  0
 37 38  2  0  0  0  0
  7 39  1  0  0  0  0
 39 40  2  0  0  0  0
 40  4  1  0  0  0  0
 38  8  1  0  0  0  0
 30  9  1  0  0  0  0
 38 33  1  0  0  0  0
 29 12  1  0  0  0  0
 18 13  1  0  0  0  0
 28 20  1  0  0  0  0
  1 41  1  0  0  0  0
  1 42  1  0  0  0  0
  1 43  1  0  0  0  0
  3 44  1  0  0  0  0
  3 45  1  0  0  0  0
  3 46  1  0  0  0  0
  5 47  1  0  0  0  0
  6 48  1  0  0  0  0
 14 49  1  0  0  0  0
 15 50  1  0  0  0  0
 16 51  1  0  0  0  0
 17 52  1  0  0  0  0
 21 53  1  0  0  0  0
 22 54  1  0  0  0  0
 25 55  1  0  0  0  0
 25 56  1  0  0  0  0
 25 57  1  0  0  0  0
 26 58  1  0  0  0  0
 26 59  1  0  0  0  0
 26 60  1  0  0  0  0
 27 61  1  0  0  0  0
 28 62  1  0  0  0  0
 34 63  1  0  0  0  0
 35 64  1  0  0  0  0
 36 65  1  0  0  0  0
 37 66  1  0  0  0  0
 39 67  1  0  0  0  0
 40 68  1  0  0  0  0
M  CHG  1   9   1
M  CHG  1  30  -1
M  END
