
  xtb     03022213373D
 energy: -94.250174445919 gnorm: 0.000150730764 xtb: 6.4.1 (afa7bdf)
 58 61  0     0  0            999 V2000
   -3.6731    2.6508    0.6555 C   0  0  0  0  0  0  0  0  0  0  0  0
   -4.2325    1.3268    0.1308 C   0  0  0  0  0  0  0  0  0  0  0  0
   -5.2821    1.6146   -0.9428 C   0  0  0  0  0  0  0  0  0  0  0  0
   -3.1033    0.4752   -0.4651 C   0  0  0  0  0  0  0  0  0  0  0  0
   -2.1346   -0.0179    0.5696 C   0  0  0  0  0  0  0  0  0  0  0  0
   -0.8007   -0.2904    0.1137 C   0  0  0  0  0  0  0  0  0  0  0  0
    0.2311   -0.7322    0.8594 C   0  0  0  0  0  0  0  0  0  0  0  0
    1.5571   -0.9635    0.3585 C   0  0  0  0  0  0  0  0  0  0  0  0
    2.4738   -1.8525    0.8966 C   0  0  0  0  0  0  0  0  0  0  0  0
    3.5640   -1.8510    0.1001 N   0  0  0  0  0  0  0  0  0  0  0  0
    4.7504   -2.5833    0.2351 C   0  0  0  0  0  0  0  0  0  0  0  0
    4.8761   -3.5980    1.1782 C   0  0  0  0  0  0  0  0  0  0  0  0
    6.0674   -4.2935    1.2780 C   0  0  0  0  0  0  0  0  0  0  0  0
    7.1312   -3.9897    0.4453 C   0  0  0  0  0  0  0  0  0  0  0  0
    7.0013   -2.9825   -0.4974 C   0  0  0  0  0  0  0  0  0  0  0  0
    5.8179   -2.2789   -0.6056 C   0  0  0  0  0  0  0  0  0  0  0  0
    3.4178   -1.0016   -0.9153 N   0  0  0  0  0  0  0  0  0  0  0  0
    2.2266   -0.4425   -0.7923 C   0  0  0  0  0  0  0  0  0  0  0  0
    1.8149    0.5953   -1.7265 C   0  0  0  0  0  0  0  0  0  0  0  0
    2.1586    0.4797   -3.0752 C   0  0  0  0  0  0  0  0  0  0  0  0
    1.7825    1.4516   -3.9776 C   0  0  0  0  0  0  0  0  0  0  0  0
    1.0610    2.5532   -3.5300 C   0  0  0  0  0  0  0  0  0  0  0  0
    0.6436    3.5587   -4.4687 N   0  0  0  0  0  4  0  0  0  0  0  0
   -0.0542    4.4616   -4.0535 O   0  0  0  0  0  0  0  0  0  0  0  0
    1.0071    3.4428   -5.6205 O   0  0  0  0  0  1  0  0  0  0  0  0
    0.7397    2.7001   -2.1839 C   0  0  0  0  0  0  0  0  0  0  0  0
    1.1208    1.7260   -1.2874 C   0  0  0  0  0  0  0  0  0  0  0  0
   -2.5392   -0.1769    1.8580 C   0  0  0  0  0  0  0  0  0  0  0  0
   -3.8644    0.1021    2.2903 C   0  0  0  0  0  0  0  0  0  0  0  0
   -4.2166   -0.0431    3.6093 C   0  0  0  0  0  0  0  0  0  0  0  0
   -5.5153    0.2320    4.0790 C   0  0  0  0  0  0  0  0  0  0  0  0
   -6.5723    0.4591    4.4650 N   0  0  0  0  0  0  0  0  0  0  0  0
   -3.3039   -0.4817    4.5889 C   0  0  0  0  0  0  0  0  0  0  0  0
   -2.5568   -0.8395    5.3839 N   0  0  0  0  0  0  0  0  0  0  0  0
   -4.8750    0.5331    1.2760 C   0  0  0  0  0  0  0  0  0  0  0  0
   -4.4654    3.2418    1.1094 H   0  0  0  0  0  0  0  0  0  0  0  0
   -3.2422    3.2282   -0.1594 H   0  0  0  0  0  0  0  0  0  0  0  0
   -2.9004    2.4839    1.4029 H   0  0  0  0  0  0  0  0  0  0  0  0
   -4.8383    2.1635   -1.7702 H   0  0  0  0  0  0  0  0  0  0  0  0
   -6.0909    2.2136   -0.5312 H   0  0  0  0  0  0  0  0  0  0  0  0
   -5.7054    0.6908   -1.3321 H   0  0  0  0  0  0  0  0  0  0  0  0
   -3.5384   -0.3958   -0.9686 H   0  0  0  0  0  0  0  0  0  0  0  0
   -2.5695    1.0511   -1.2249 H   0  0  0  0  0  0  0  0  0  0  0  0
   -0.6292   -0.1130   -0.9402 H   0  0  0  0  0  0  0  0  0  0  0  0
    0.0909   -0.9808    1.9027 H   0  0  0  0  0  0  0  0  0  0  0  0
    2.3874   -2.4633    1.7709 H   0  0  0  0  0  0  0  0  0  0  0  0
    4.0552   -3.8559    1.8282 H   0  0  0  0  0  0  0  0  0  0  0  0
    6.1618   -5.0801    2.0112 H   0  0  0  0  0  0  0  0  0  0  0  0
    8.0570   -4.5374    0.5302 H   0  0  0  0  0  0  0  0  0  0  0  0
    7.8264   -2.7421   -1.1503 H   0  0  0  0  0  0  0  0  0  0  0  0
    5.6965   -1.4904   -1.3306 H   0  0  0  0  0  0  0  0  0  0  0  0
    2.7176   -0.3842   -3.3972 H   0  0  0  0  0  0  0  0  0  0  0  0
    2.0295    1.3749   -5.0254 H   0  0  0  0  0  0  0  0  0  0  0  0
    0.2010    3.5790   -1.8640 H   0  0  0  0  0  0  0  0  0  0  0  0
    0.8912    1.8390   -0.2391 H   0  0  0  0  0  0  0  0  0  0  0  0
   -1.8439   -0.5176    2.6117 H   0  0  0  0  0  0  0  0  0  0  0  0
   -5.6657    1.1190    1.7505 H   0  0  0  0  0  0  0  0  0  0  0  0
   -5.3439   -0.3677    0.8624 H   0  0  0  0  0  0  0  0  0  0  0  0
  1  2  1  0  0  0  0
  2  3  1  0  0  0  0
  2  4  1  0  0  0  0
  4  5  1  0  0  0  0
  5  6  1  0  0  0  0
  6  7  2  0  0  0  0
  7  8  1  0  0  0  0
  8  9  2  0  0  0  0
  9 10  1  0  0  0  0
 10 11  1  0  0  0  0
 11 12  2  0  0  0  0
 12 13  1  0  0  0  0
 13 14  2  0  0  0  0
 14 15  1  0  0  0  0
 15 16  2  0  0  0  0
 10 17  1  0  0  0  0
 17 18  2  0  0  0  0
 18 19  1  0  0  0  0
 19 20  2  0  0  0  0
 20 21  1  0  0  0  0
 21 22  2  0  0  0  0
 22 23  1  0  0  0  0
 23 24  2  0  0  0  0
 23 25  1  0  0  0  0
 22 26  1  0  0  0  0
 26 27  2  0  0  0  0
  5 28  2  0  0  0  0
 28 29  1  0  0  0  0
 29 30  2  0  0  0  0
 30 31  1  0  0  0  0
 31 32  3  0  0  0  0
 30 33  1  0  0  0  0
 33 34  3  0  0  0  0
 29 35  1  0  0  0  0
 35  2  1  0  0  0  0
 18  8  1  0  0  0  0
 27 19  1  0  0  0  0
 16 11  1  0  0  0  0
  1 36  1  0  0  0  0
  1 37  1  0  0  0  0
  1 38  1  0  0  0  0
  3 39  1  0  0  0  0
  3 40  1  0  0  0  0
  3 41  1  0  0  0  0
  4 42  1  0  0  0  0
  4 43  1  0  0  0  0
  6 44  1  0  0  0  0
  7 45  1  0  0  0  0
  9 46  1  0  0  0  0
 12 47  1  0  0  0  0
 13 48  1  0  0  0  0
 14 49  1  0  0  0  0
 15 50  1  0  0  0  0
 16 51  1  0  0  0  0
 20 52  1  0  0  0  0
 21 53  1  0  0  0  0
 26 54  1  0  0  0  0
 27 55  1  0  0  0  0
 28 56  1  0  0  0  0
 35 57  1  0  0  0  0
 35 58  1  0  0  0  0
M  CHG  1  23   1
M  CHG  1  25  -1
M  END
