
  xtb     03022215143D
 energy: -96.752227396705 gnorm: 0.000075468983 xtb: 6.4.1 (afa7bdf)
 62 68  0     0  0            999 V2000
    4.5787   -4.4935    2.7937 C   0  0  0  0  0  0  0  0  0  0  0  0
    3.4004   -3.8214    3.0726 C   0  0  0  0  0  0  0  0  0  0  0  0
    3.0535   -2.6933    2.3529 C   0  0  0  0  0  0  0  0  0  0  0  0
    3.8853   -2.2245    1.3378 C   0  0  0  0  0  0  0  0  0  0  0  0
    3.5446   -1.0466    0.5586 C   0  0  0  0  0  0  0  0  0  0  0  0
    4.4747   -0.2996    0.0137 N   0  0  0  0  0  0  0  0  0  0  0  0
    3.8987    0.7174   -0.6548 N   0  0  0  0  0  0  0  0  0  0  0  0
    4.6924    1.6700   -1.2962 C   0  0  0  0  0  0  0  0  0  0  0  0
    4.1193    2.7246   -2.0000 C   0  0  0  0  0  0  0  0  0  0  0  0
    4.9374    3.6505   -2.6205 C   0  0  0  0  0  0  0  0  0  0  0  0
    6.3159    3.5368   -2.5475 C   0  0  0  0  0  0  0  0  0  0  0  0
    6.8814    2.4845   -1.8454 C   0  0  0  0  0  0  0  0  0  0  0  0
    6.0782    1.5515   -1.2197 C   0  0  0  0  0  0  0  0  0  0  0  0
    2.5373    0.6381   -0.5629 C   0  0  0  0  0  0  0  0  0  0  0  0
    1.6466    1.4330   -1.1079 N   0  0  0  0  0  0  0  0  0  0  0  0
    0.3621    1.1210   -0.8865 C   0  0  0  0  0  0  0  0  0  0  0  0
   -0.6341    1.9488   -1.4560 C   0  0  0  0  0  0  0  0  0  0  0  0
   -1.9550    1.6790   -1.2764 C   0  0  0  0  0  0  0  0  0  0  0  0
   -2.3733    0.5590   -0.5132 C   0  0  0  0  0  0  0  0  0  0  0  0
   -3.7381    0.3237   -0.3319 N   0  0  0  0  0  0  0  0  0  0  0  0
   -4.2074   -0.1619    0.8953 C   0  0  0  0  0  0  0  0  0  0  0  0
   -5.2411   -1.0964    0.9397 C   0  0  0  0  0  0  0  0  0  0  0  0
   -5.7068   -1.5611    2.1546 C   0  0  0  0  0  0  0  0  0  0  0  0
   -5.1477   -1.1117    3.3395 C   0  0  0  0  0  0  0  0  0  0  0  0
   -4.1165   -0.1873    3.3004 C   0  0  0  0  0  0  0  0  0  0  0  0
   -3.6494    0.2892    2.0912 C   0  0  0  0  0  0  0  0  0  0  0  0
   -4.6292    0.5443   -1.3879 C   0  0  0  0  0  0  0  0  0  0  0  0
   -4.2457    0.2756   -2.7018 C   0  0  0  0  0  0  0  0  0  0  0  0
   -5.1254    0.5000   -3.7429 C   0  0  0  0  0  0  0  0  0  0  0  0
   -6.3990    0.9840   -3.4936 C   0  0  0  0  0  0  0  0  0  0  0  0
   -6.7858    1.2491   -2.1898 C   0  0  0  0  0  0  0  0  0  0  0  0
   -5.9106    1.0375   -1.1427 C   0  0  0  0  0  0  0  0  0  0  0  0
   -1.4275   -0.2648    0.0485 C   0  0  0  0  0  0  0  0  0  0  0  0
   -0.0512   -0.0117   -0.1141 C   0  0  0  0  0  0  0  0  0  0  0  0
    0.9293   -0.8490    0.4445 C   0  0  0  0  0  0  0  0  0  0  0  0
    2.2484   -0.5178    0.2360 C   0  0  0  0  0  0  0  0  0  0  0  0
    5.0782   -2.8986    1.0740 C   0  0  0  0  0  0  0  0  0  0  0  0
    5.4194   -4.0243    1.7965 C   0  0  0  0  0  0  0  0  0  0  0  0
    4.8439   -5.3768    3.3559 H   0  0  0  0  0  0  0  0  0  0  0  0
    2.7496   -4.1763    3.8587 H   0  0  0  0  0  0  0  0  0  0  0  0
    2.1491   -2.1578    2.5986 H   0  0  0  0  0  0  0  0  0  0  0  0
    3.0462    2.8056   -2.0514 H   0  0  0  0  0  0  0  0  0  0  0  0
    4.4921    4.4693   -3.1662 H   0  0  0  0  0  0  0  0  0  0  0  0
    6.9471    4.2649   -3.0347 H   0  0  0  0  0  0  0  0  0  0  0  0
    7.9555    2.3904   -1.7837 H   0  0  0  0  0  0  0  0  0  0  0  0
    6.5018    0.7285   -0.6669 H   0  0  0  0  0  0  0  0  0  0  0  0
   -0.3098    2.8046   -2.0270 H   0  0  0  0  0  0  0  0  0  0  0  0
   -2.7091    2.3246   -1.7020 H   0  0  0  0  0  0  0  0  0  0  0  0
   -5.6729   -1.4552    0.0169 H   0  0  0  0  0  0  0  0  0  0  0  0
   -6.5074   -2.2858    2.1750 H   0  0  0  0  0  0  0  0  0  0  0  0
   -5.5127   -1.4787    4.2866 H   0  0  0  0  0  0  0  0  0  0  0  0
   -3.6780    0.1734    4.2193 H   0  0  0  0  0  0  0  0  0  0  0  0
   -2.8523    1.0179    2.0639 H   0  0  0  0  0  0  0  0  0  0  0  0
   -3.2575   -0.1142   -2.8982 H   0  0  0  0  0  0  0  0  0  0  0  0
   -4.8164    0.2856   -4.7554 H   0  0  0  0  0  0  0  0  0  0  0  0
   -7.0854    1.1532   -4.3091 H   0  0  0  0  0  0  0  0  0  0  0  0
   -7.7750    1.6322   -1.9867 H   0  0  0  0  0  0  0  0  0  0  0  0
   -6.2109    1.2550   -0.1282 H   0  0  0  0  0  0  0  0  0  0  0  0
   -1.7322   -1.1226    0.6316 H   0  0  0  0  0  0  0  0  0  0  0  0
    0.6322   -1.7264    1.0006 H   0  0  0  0  0  0  0  0  0  0  0  0
    5.7216   -2.5236    0.2934 H   0  0  0  0  0  0  0  0  0  0  0  0
    6.3431   -4.5418    1.5821 H   0  0  0  0  0  0  0  0  0  0  0  0
  1  2  2  0  0  0  0
  2  3  1  0  0  0  0
  3  4  2  0  0  0  0
  4  5  1  0  0  0  0
  5  6  2  0  0  0  0
  6  7  1  0  0  0  0
  7  8  1  0  0  0  0
  8  9  2  0  0  0  0
  9 10  1  0  0  0  0
 10 11  2  0  0  0  0
 11 12  1  0  0  0  0
 12 13  2  0  0  0  0
  7 14  1  0  0  0  0
 14 15  2  0  0  0  0
 15 16  1  0  0  0  0
 16 17  2  0  0  0  0
 17 18  1  0  0  0  0
 18 19  2  0  0  0  0
 19 20  1  0  0  0  0
 20 21  1  0  0  0  0
 21 22  2  0  0  0  0
 22 23  1  0  0  0  0
 23 24  2  0  0  0  0
 24 25  1  0  0  0  0
 25 26  2  0  0  0  0
 20 27  1  0  0  0  0
 27 28  2  0  0  0  0
 28 29  1  0  0  0  0
 29 30  2  0  0  0  0
 30 31  1  0  0  0  0
 31 32  2  0  0  0  0
 19 33  1  0  0  0  0
 33 34  2  0  0  0  0
 34 35  1  0  0  0  0
 35 36  2  0  0  0  0
  4 37  1  0  0  0  0
 37 38  2  0  0  0  0
 38  1  1  0  0  0  0
 36  5  1  0  0  0  0
 13  8  1  0  0  0  0
 36 14  1  0  0  0  0
 34 16  1  0  0  0  0
 26 21  1  0  0  0  0
 32 27  1  0  0  0  0
  1 39  1  0  0  0  0
  2 40  1  0  0  0  0
  3 41  1  0  0  0  0
  9 42  1  0  0  0  0
 10 43  1  0  0  0  0
 11 44  1  0  0  0  0
 12 45  1  0  0  0  0
 13 46  1  0  0  0  0
 17 47  1  0  0  0  0
 18 48  1  0  0  0  0
 22 49  1  0  0  0  0
 23 50  1  0  0  0  0
 24 51  1  0  0  0  0
 25 52  1  0  0  0  0
 26 53  1  0  0  0  0
 28 54  1  0  0  0  0
 29 55  1  0  0  0  0
 30 56  1  0  0  0  0
 31 57  1  0  0  0  0
 32 58  1  0  0  0  0
 33 59  1  0  0  0  0
 35 60  1  0  0  0  0
 37 61  1  0  0  0  0
 38 62  1  0  0  0  0
M  END
