
  xtb     03022215493D
 energy: -63.530499087230 gnorm: 0.000145044144 xtb: 6.4.1 (afa7bdf)
 40 44  0     0  0            999 V2000
   -0.1486    5.5679    0.7210 C   0  0  0  0  0  0  0  0  0  0  0  0
    0.9308    4.7900    1.1052 C   0  0  0  0  0  0  0  0  0  0  0  0
    0.8914    3.4170    0.9496 C   0  0  0  0  0  0  0  0  0  0  0  0
   -0.2347    2.8047    0.4029 C   0  0  0  0  0  0  0  0  0  0  0  0
   -0.3016    1.3639    0.2270 C   0  0  0  0  0  0  0  0  0  0  0  0
   -1.4447    0.7235    0.2632 N   0  0  0  0  0  0  0  0  0  0  0  0
   -1.2274   -0.5934    0.0792 N   0  0  0  0  0  0  0  0  0  0  0  0
   -2.2998   -1.4876    0.1001 C   0  0  0  0  0  0  0  0  0  0  0  0
   -3.5833   -0.9923    0.3173 C   0  0  0  0  0  0  0  0  0  0  0  0
   -4.6576   -1.8599    0.3408 C   0  0  0  0  0  0  0  0  0  0  0  0
   -4.4644   -3.2187    0.1500 C   0  0  0  0  0  0  0  0  0  0  0  0
   -3.1861   -3.7064   -0.0649 C   0  0  0  0  0  0  0  0  0  0  0  0
   -2.1000   -2.8511   -0.0917 C   0  0  0  0  0  0  0  0  0  0  0  0
    0.1053   -0.8372   -0.0970 C   0  0  0  0  0  0  0  0  0  0  0  0
    0.6897   -1.9899   -0.3196 N   0  0  0  0  0  0  0  0  0  0  0  0
    2.0211   -1.9567   -0.4887 C   0  0  0  0  0  0  0  0  0  0  0  0
    2.6913   -3.1788   -0.7236 C   0  0  0  0  0  0  0  0  0  0  0  0
    4.0406   -3.2039   -0.9203 C   0  0  0  0  0  0  0  0  0  0  0  0
    4.7923   -2.0140   -0.8958 C   0  0  0  0  0  0  0  0  0  0  0  0
    4.1796   -0.8165   -0.6712 C   0  0  0  0  0  0  0  0  0  0  0  0
    2.7842   -0.7455   -0.4575 C   0  0  0  0  0  0  0  0  0  0  0  0
    2.1259    0.4715   -0.2193 C   0  0  0  0  0  0  0  0  0  0  0  0
    0.7668    0.4337   -0.0117 C   0  0  0  0  0  0  0  0  0  0  0  0
   -1.3238    3.5939    0.0329 C   0  0  0  0  0  0  0  0  0  0  0  0
   -1.2779    4.9648    0.1900 C   0  0  0  0  0  0  0  0  0  0  0  0
   -0.1122    6.6406    0.8412 H   0  0  0  0  0  0  0  0  0  0  0  0
    1.8067    5.2558    1.5334 H   0  0  0  0  0  0  0  0  0  0  0  0
    1.7238    2.8149    1.2812 H   0  0  0  0  0  0  0  0  0  0  0  0
   -3.7157    0.0672    0.4663 H   0  0  0  0  0  0  0  0  0  0  0  0
   -5.6518   -1.4731    0.5096 H   0  0  0  0  0  0  0  0  0  0  0  0
   -5.3067   -3.8940    0.1694 H   0  0  0  0  0  0  0  0  0  0  0  0
   -3.0305   -4.7648   -0.2136 H   0  0  0  0  0  0  0  0  0  0  0  0
   -1.1023   -3.2220   -0.2583 H   0  0  0  0  0  0  0  0  0  0  0  0
    2.0987   -4.0802   -0.7409 H   0  0  0  0  0  0  0  0  0  0  0  0
    4.5461   -4.1416   -1.0986 H   0  0  0  0  0  0  0  0  0  0  0  0
    5.8592   -2.0593   -1.0564 H   0  0  0  0  0  0  0  0  0  0  0  0
    4.7497    0.1020   -0.6493 H   0  0  0  0  0  0  0  0  0  0  0  0
    2.6855    1.3962   -0.2178 H   0  0  0  0  0  0  0  0  0  0  0  0
   -2.1955    3.1111   -0.3805 H   0  0  0  0  0  0  0  0  0  0  0  0
   -2.1242    5.5686   -0.1034 H   0  0  0  0  0  0  0  0  0  0  0  0
  1  2  2  0  0  0  0
  2  3  1  0  0  0  0
  3  4  2  0  0  0  0
  4  5  1  0  0  0  0
  5  6  2  0  0  0  0
  6  7  1  0  0  0  0
  7  8  1  0  0  0  0
  8  9  2  0  0  0  0
  9 10  1  0  0  0  0
 10 11  2  0  0  0  0
 11 12  1  0  0  0  0
 12 13  2  0  0  0  0
  7 14  1  0  0  0  0
 14 15  2  0  0  0  0
 15 16  1  0  0  0  0
 16 17  2  0  0  0  0
 17 18  1  0  0  0  0
 18 19  2  0  0  0  0
 19 20  1  0  0  0  0
 20 21  2  0  0  0  0
 21 22  1  0  0  0  0
 22 23  2  0  0  0  0
  4 24  1  0  0  0  0
 24 25  2  0  0  0  0
 25  1  1  0  0  0  0
 23  5  1  0  0  0  0
 13  8  1  0  0  0  0
 23 14  1  0  0  0  0
 21 16  1  0  0  0  0
  1 26  1  0  0  0  0
  2 27  1  0  0  0  0
  3 28  1  0  0  0  0
  9 29  1  0  0  0  0
 10 30  1  0  0  0  0
 11 31  1  0  0  0  0
 12 32  1  0  0  0  0
 13 33  1  0  0  0  0
 17 34  1  0  0  0  0
 18 35  1  0  0  0  0
 19 36  1  0  0  0  0
 20 37  1  0  0  0  0
 22 38  1  0  0  0  0
 24 39  1  0  0  0  0
 25 40  1  0  0  0  0
M  END
