
  xtb     03022215503D
 energy: -117.871380247531 gnorm: 0.000077614250 xtb: 6.4.1 (afa7bdf)
 60 68  0     0  0            999 V2000
    0.1956    4.9860   -3.5926 O   0  0  0  0  0  0  0  0  0  0  0  0
   -0.4806    4.2670   -2.9104 C   0  0  0  0  0  0  0  0  0  0  0  0
   -1.7860    4.6228   -2.6887 O   0  0  0  0  0  0  0  0  0  0  0  0
   -2.6879    3.9097   -1.9571 C   0  0  0  0  0  0  0  0  0  0  0  0
   -3.8045    4.3352   -1.8418 O   0  0  0  0  0  0  0  0  0  0  0  0
   -2.2205    2.6493   -1.3592 C   0  0  0  0  0  0  0  0  0  0  0  0
   -3.0915    1.8863   -0.6170 C   0  0  0  0  0  0  0  0  0  0  0  0
   -2.6948    0.6584   -0.0771 C   0  0  0  0  0  0  0  0  0  0  0  0
   -3.5613   -0.0481    0.6850 O   0  0  0  0  0  0  0  0  0  0  0  0
   -4.9285    0.0779    0.5143 C   0  0  0  0  0  0  0  0  0  0  0  0
   -5.7148    0.0827    1.6588 C   0  0  0  0  0  0  0  0  0  0  0  0
   -7.0920    0.1203    1.5394 C   0  0  0  0  0  0  0  0  0  0  0  0
   -7.6839    0.1515    0.2877 C   0  0  0  0  0  0  0  0  0  0  0  0
   -6.8947    0.1327   -0.8501 C   0  0  0  0  0  0  0  0  0  0  0  0
   -5.5166    0.0908   -0.7449 C   0  0  0  0  0  0  0  0  0  0  0  0
   -1.3732    0.1925   -0.2424 C   0  0  0  0  0  0  0  0  0  0  0  0
   -0.9112   -1.1052    0.2191 C   0  0  0  0  0  0  0  0  0  0  0  0
   -1.7825   -2.1177    0.6192 C   0  0  0  0  0  0  0  0  0  0  0  0
   -1.3323   -3.3279    1.1191 C   0  0  0  0  0  0  0  0  0  0  0  0
    0.0231   -3.5517    1.2767 C   0  0  0  0  0  0  0  0  0  0  0  0
    0.9385   -2.5730    0.8457 C   0  0  0  0  0  0  0  0  0  0  0  0
    2.3198   -2.8133    0.9862 C   0  0  0  0  0  0  0  0  0  0  0  0
    3.2286   -1.8651    0.5784 C   0  0  0  0  0  0  0  0  0  0  0  0
    2.8087   -0.6801   -0.0345 C   0  0  0  0  0  0  0  0  0  0  0  0
    3.7274    0.2237   -0.4493 O   0  0  0  0  0  0  0  0  0  0  0  0
    4.9704    0.2939    0.1554 C   0  0  0  0  0  0  0  0  0  0  0  0
    5.1253    0.2678    1.5358 C   0  0  0  0  0  0  0  0  0  0  0  0
    6.3881    0.4155    2.0798 C   0  0  0  0  0  0  0  0  0  0  0  0
    7.4884    0.5966    1.2585 C   0  0  0  0  0  0  0  0  0  0  0  0
    7.3250    0.6386   -0.1160 C   0  0  0  0  0  0  0  0  0  0  0  0
    6.0683    0.4877   -0.6727 C   0  0  0  0  0  0  0  0  0  0  0  0
    1.4377   -0.4423   -0.2677 C   0  0  0  0  0  0  0  0  0  0  0  0
    0.9392    0.6962   -1.0136 C   0  0  0  0  0  0  0  0  0  0  0  0
    1.7595    1.4689   -1.8346 C   0  0  0  0  0  0  0  0  0  0  0  0
    1.2992    2.6104   -2.4703 C   0  0  0  0  0  0  0  0  0  0  0  0
   -0.0075    3.0246   -2.2898 C   0  0  0  0  0  0  0  0  0  0  0  0
   -0.8852    2.2331   -1.5237 C   0  0  0  0  0  0  0  0  0  0  0  0
   -0.4420    1.0311   -0.9143 C   0  0  0  0  0  0  0  0  0  0  0  0
    0.4904   -1.3624    0.2573 C   0  0  0  0  0  0  0  0  0  0  0  0
    2.8004   -4.0673    1.5864 C   0  0  0  0  0  0  0  0  0  0  0  0
    3.9593   -4.3301    1.7574 O   0  0  0  0  0  0  0  0  0  0  0  0
    1.8584   -4.9725    1.9747 O   0  0  0  0  0  0  0  0  0  0  0  0
    0.5019   -4.8084    1.8629 C   0  0  0  0  0  0  0  0  0  0  0  0
   -0.2107   -5.6954    2.2439 O   0  0  0  0  0  0  0  0  0  0  0  0
   -4.0959    2.2502   -0.4585 H   0  0  0  0  0  0  0  0  0  0  0  0
   -5.2354    0.0567    2.6247 H   0  0  0  0  0  0  0  0  0  0  0  0
   -7.7033    0.1285    2.4286 H   0  0  0  0  0  0  0  0  0  0  0  0
   -8.7585    0.1856    0.1980 H   0  0  0  0  0  0  0  0  0  0  0  0
   -7.3509    0.1463   -1.8280 H   0  0  0  0  0  0  0  0  0  0  0  0
   -4.8982    0.0618   -1.6305 H   0  0  0  0  0  0  0  0  0  0  0  0
   -2.8448   -1.9743    0.5434 H   0  0  0  0  0  0  0  0  0  0  0  0
   -2.0281   -4.0975    1.4150 H   0  0  0  0  0  0  0  0  0  0  0  0
    4.2822   -2.0651    0.7072 H   0  0  0  0  0  0  0  0  0  0  0  0
    4.2628    0.1392    2.1735 H   0  0  0  0  0  0  0  0  0  0  0  0
    6.5094    0.3915    3.1518 H   0  0  0  0  0  0  0  0  0  0  0  0
    8.4710    0.7085    1.6900 H   0  0  0  0  0  0  0  0  0  0  0  0
    8.1787    0.7844   -0.7599 H   0  0  0  0  0  0  0  0  0  0  0  0
    5.9242    0.5155   -1.7415 H   0  0  0  0  0  0  0  0  0  0  0  0
    2.7817    1.1788   -1.9937 H   0  0  0  0  0  0  0  0  0  0  0  0
    1.9532    3.1992   -3.0944 H   0  0  0  0  0  0  0  0  0  0  0  0
  1  2  2  0  0  0  0
  2  3  1  0  0  0  0
  3  4  1  0  0  0  0
  4  5  2  0  0  0  0
  4  6  1  0  0  0  0
  6  7  2  0  0  0  0
  7  8  1  0  0  0  0
  8  9  1  0  0  0  0
  9 10  1  0  0  0  0
 10 11  2  0  0  0  0
 11 12  1  0  0  0  0
 12 13  2  0  0  0  0
 13 14  1  0  0  0  0
 14 15  2  0  0  0  0
  8 16  2  0  0  0  0
 16 17  1  0  0  0  0
 17 18  2  0  0  0  0
 18 19  1  0  0  0  0
 19 20  2  0  0  0  0
 20 21  1  0  0  0  0
 21 22  1  0  0  0  0
 22 23  2  0  0  0  0
 23 24  1  0  0  0  0
 24 25  1  0  0  0  0
 25 26  1  0  0  0  0
 26 27  2  0  0  0  0
 27 28  1  0  0  0  0
 28 29  2  0  0  0  0
 29 30  1  0  0  0  0
 30 31  2  0  0  0  0
 24 32  2  0  0  0  0
 32 33  1  0  0  0  0
 33 34  2  0  0  0  0
 34 35  1  0  0  0  0
 35 36  2  0  0  0  0
 36 37  1  0  0  0  0
 37 38  2  0  0  0  0
 32 39  1  0  0  0  0
 22 40  1  0  0  0  0
 40 41  2  0  0  0  0
 40 42  1  0  0  0  0
 42 43  1  0  0  0  0
 43 44  2  0  0  0  0
 36  2  1  0  0  0  0
 37  6  1  0  0  0  0
 15 10  1  0  0  0  0
 38 16  1  0  0  0  0
 39 17  1  0  0  0  0
 43 20  1  0  0  0  0
 39 21  2  0  0  0  0
 31 26  1  0  0  0  0
 38 33  1  0  0  0  0
  7 45  1  0  0  0  0
 11 46  1  0  0  0  0
 12 47  1  0  0  0  0
 13 48  1  0  0  0  0
 14 49  1  0  0  0  0
 15 50  1  0  0  0  0
 18 51  1  0  0  0  0
 19 52  1  0  0  0  0
 23 53  1  0  0  0  0
 27 54  1  0  0  0  0
 28 55  1  0  0  0  0
 29 56  1  0  0  0  0
 30 57  1  0  0  0  0
 31 58  1  0  0  0  0
 34 59  1  0  0  0  0
 35 60  1  0  0  0  0
M  END
