
  xtb     03022212223D
 energy: -75.224079229911 gnorm: 0.000152977295 xtb: 6.4.1 (afa7bdf)
 40 44  0     0  0            999 V2000
    3.2370    1.3666    2.7615 C   0  0  0  0  0  0  0  0  0  0  0  0
    2.6195    0.8120    1.5229 C   0  0  0  0  0  0  0  0  0  0  0  0
    3.4437    0.3758    0.6301 O   0  0  0  0  0  3  0  0  0  0  0  0
    2.9785   -0.3121   -0.6013 B   0  0  0  0  0  4  0  0  0  0  0  0
    3.6738    0.2077   -1.7686 O   0  0  0  0  0  0  0  0  0  0  0  0
    4.3740   -0.7582   -2.3575 C   0  0  0  0  0  0  0  0  0  0  0  0
    5.0490   -0.6309   -3.3350 O   0  0  0  0  0  0  0  0  0  0  0  0
    4.1426   -2.0542   -1.5401 C   0  0  0  0  0  0  0  0  0  0  0  0
    4.5914   -3.1404   -1.7579 O   0  0  0  0  0  0  0  0  0  0  0  0
    3.3325   -1.7423   -0.5336 O   0  0  0  0  0  0  0  0  0  0  0  0
    1.5088   -0.1981   -0.7711 O   0  0  0  0  0  0  0  0  0  0  0  0
    0.7314    0.2373    0.1636 C   0  0  0  0  0  0  0  0  0  0  0  0
   -0.7133    0.1212   -0.0457 C   0  0  0  0  0  0  0  0  0  0  0  0
   -1.2585   -1.1282   -0.4198 C   0  0  0  0  0  0  0  0  0  0  0  0
   -0.4743   -2.2876   -0.6452 C   0  0  0  0  0  0  0  0  0  0  0  0
   -1.0531   -3.4730   -0.9916 C   0  0  0  0  0  0  0  0  0  0  0  0
   -2.4514   -3.5881   -1.1182 C   0  0  0  0  0  0  0  0  0  0  0  0
   -3.2434   -2.5074   -0.8818 C   0  0  0  0  0  0  0  0  0  0  0  0
   -2.6808   -1.2552   -0.5238 C   0  0  0  0  0  0  0  0  0  0  0  0
   -3.4930   -0.1563   -0.2640 C   0  0  0  0  0  0  0  0  0  0  0  0
   -2.9623    1.0868    0.0668 C   0  0  0  0  0  0  0  0  0  0  0  0
   -3.8018    2.2083    0.2884 C   0  0  0  0  0  0  0  0  0  0  0  0
   -3.2756    3.4340    0.5581 C   0  0  0  0  0  0  0  0  0  0  0  0
   -1.8777    3.6034    0.5953 C   0  0  0  0  0  0  0  0  0  0  0  0
   -1.0394    2.5459    0.3987 C   0  0  0  0  0  0  0  0  0  0  0  0
   -1.5448    1.2418    0.1646 C   0  0  0  0  0  0  0  0  0  0  0  0
    1.2457    0.7588    1.3554 C   0  0  0  0  0  0  0  0  0  0  0  0
    3.3954    0.5518    3.4683 H   0  0  0  0  0  0  0  0  0  0  0  0
    4.2080    1.7955    2.5282 H   0  0  0  0  0  0  0  0  0  0  0  0
    2.5914    2.1066    3.2244 H   0  0  0  0  0  0  0  0  0  0  0  0
    0.5986   -2.2348   -0.5572 H   0  0  0  0  0  0  0  0  0  0  0  0
   -0.4338   -4.3388   -1.1702 H   0  0  0  0  0  0  0  0  0  0  0  0
   -2.8833   -4.5379   -1.3948 H   0  0  0  0  0  0  0  0  0  0  0  0
   -4.3185   -2.5787   -0.9587 H   0  0  0  0  0  0  0  0  0  0  0  0
   -4.5662   -0.2678   -0.3339 H   0  0  0  0  0  0  0  0  0  0  0  0
   -4.8704    2.0658    0.2231 H   0  0  0  0  0  0  0  0  0  0  0  0
   -3.9177    4.2856    0.7238 H   0  0  0  0  0  0  0  0  0  0  0  0
   -1.4717    4.5886    0.7700 H   0  0  0  0  0  0  0  0  0  0  0  0
    0.0279    2.7035    0.3943 H   0  0  0  0  0  0  0  0  0  0  0  0
    0.5823    1.0926    2.1327 H   0  0  0  0  0  0  0  0  0  0  0  0
  1  2  1  0  0  0  0
  2  3  2  0  0  0  0
  3  4  1  0  0  0  0
  4  5  1  0  0  0  0
  5  6  1  0  0  0  0
  6  7  2  0  0  0  0
  6  8  1  0  0  0  0
  8  9  2  0  0  0  0
  8 10  1  0  0  0  0
  4 11  1  0  0  0  0
 11 12  1  0  0  0  0
 12 13  1  0  0  0  0
 13 14  1  0  0  0  0
 14 15  2  0  0  0  0
 15 16  1  0  0  0  0
 16 17  2  0  0  0  0
 17 18  1  0  0  0  0
 18 19  2  0  0  0  0
 19 20  1  0  0  0  0
 20 21  2  0  0  0  0
 21 22  1  0  0  0  0
 22 23  2  0  0  0  0
 23 24  1  0  0  0  0
 24 25  2  0  0  0  0
 25 26  1  0  0  0  0
 12 27  2  0  0  0  0
 27  2  1  0  0  0  0
 10  4  1  0  0  0  0
 26 13  2  0  0  0  0
 19 14  1  0  0  0  0
 26 21  1  0  0  0  0
  1 28  1  0  0  0  0
  1 29  1  0  0  0  0
  1 30  1  0  0  0  0
 15 31  1  0  0  0  0
 16 32  1  0  0  0  0
 17 33  1  0  0  0  0
 18 34  1  0  0  0  0
 20 35  1  0  0  0  0
 22 36  1  0  0  0  0
 23 37  1  0  0  0  0
 24 38  1  0  0  0  0
 25 39  1  0  0  0  0
 27 40  1  0  0  0  0
M  CHG  1   3   1
M  CHG  1   4  -1
M  END
