
  xtb     03022213143D
 energy: -71.008323807757 gnorm: 0.000243373304 xtb: 6.4.1 (afa7bdf)
 48 49  0     0  0            999 V2000
    4.7540   -0.9846    2.8541 C   0  0  0  0  0  0  0  0  0  0  0  0
    4.0507   -0.0177    2.0810 O   0  0  0  0  0  0  0  0  0  0  0  0
    3.5761   -0.4272    0.9093 C   0  0  0  0  0  0  0  0  0  0  0  0
    3.6954   -1.5458    0.4779 O   0  0  0  0  0  0  0  0  0  0  0  0
    2.8767    0.6976    0.1617 C   0  0  0  0  0  0  0  0  0  0  0  0
    2.1748    0.1267   -0.9626 N   0  0  0  0  0  0  0  0  0  0  0  0
    0.8781    0.3969   -1.2160 C   0  0  0  0  0  0  0  0  0  0  0  0
    0.2496    1.2363   -0.5973 O   0  0  0  0  0  0  0  0  0  0  0  0
    0.2567   -0.4227   -2.3312 C   0  0  0  0  0  0  0  0  0  0  0  0
   -0.7953   -1.3730   -1.7432 C   0  0  0  0  0  0  0  0  0  0  0  0
   -1.8603   -0.5997   -1.1611 N   0  0  0  0  0  0  0  0  0  0  0  0
   -2.9579   -1.1613   -0.5613 C   0  0  0  0  0  0  0  0  0  0  0  0
   -3.2573   -2.5041   -0.7044 C   0  0  0  0  0  0  0  0  0  0  0  0
   -4.4157   -3.0531   -0.1503 C   0  0  0  0  0  0  0  0  0  0  0  0
   -5.2892   -2.2782    0.5587 C   0  0  0  0  0  0  0  0  0  0  0  0
   -5.0259   -0.9052    0.7409 C   0  0  0  0  0  0  0  0  0  0  0  0
   -5.9134   -0.0887    1.4731 C   0  0  0  0  0  0  0  0  0  0  0  0
   -5.6652    1.2419    1.6548 C   0  0  0  0  0  0  0  0  0  0  0  0
   -4.5093    1.8141    1.1089 C   0  0  0  0  0  0  0  0  0  0  0  0
   -3.6289    1.0496    0.3917 C   0  0  0  0  0  0  0  0  0  0  0  0
   -3.8543   -0.3264    0.1830 C   0  0  0  0  0  0  0  0  0  0  0  0
    3.9071    1.7723   -0.2622 C   0  0  0  0  0  0  0  0  0  0  0  0
    3.1895    2.9759   -0.8640 C   0  0  0  0  0  0  0  0  0  0  0  0
    4.9224    1.1992   -1.2485 C   0  0  0  0  0  0  0  0  0  0  0  0
    4.1578   -1.8931    2.9568 H   0  0  0  0  0  0  0  0  0  0  0  0
    5.7010   -1.2357    2.3722 H   0  0  0  0  0  0  0  0  0  0  0  0
    4.9301   -0.5277    3.8241 H   0  0  0  0  0  0  0  0  0  0  0  0
    2.1341    1.1655    0.8184 H   0  0  0  0  0  0  0  0  0  0  0  0
    2.6188   -0.6807   -1.3762 H   0  0  0  0  0  0  0  0  0  0  0  0
    1.0131   -0.9933   -2.8689 H   0  0  0  0  0  0  0  0  0  0  0  0
   -0.2426    0.2575   -3.0235 H   0  0  0  0  0  0  0  0  0  0  0  0
   -0.3163   -2.0390   -1.0049 H   0  0  0  0  0  0  0  0  0  0  0  0
   -1.1981   -1.9963   -2.5498 H   0  0  0  0  0  0  0  0  0  0  0  0
   -1.5422    0.2808   -0.7774 H   0  0  0  0  0  0  0  0  0  0  0  0
   -2.5917   -3.1522   -1.2528 H   0  0  0  0  0  0  0  0  0  0  0  0
   -4.6098   -4.1074   -0.2891 H   0  0  0  0  0  0  0  0  0  0  0  0
   -6.1857   -2.7009    0.9879 H   0  0  0  0  0  0  0  0  0  0  0  0
   -6.8012   -0.5436    1.8903 H   0  0  0  0  0  0  0  0  0  0  0  0
   -6.3524    1.8574    2.2176 H   0  0  0  0  0  0  0  0  0  0  0  0
   -4.3149    2.8667    1.2567 H   0  0  0  0  0  0  0  0  0  0  0  0
   -2.7493    1.5259   -0.0154 H   0  0  0  0  0  0  0  0  0  0  0  0
    4.4270    2.0845    0.6491 H   0  0  0  0  0  0  0  0  0  0  0  0
    3.9086    3.7479   -1.1264 H   0  0  0  0  0  0  0  0  0  0  0  0
    2.6498    2.6866   -1.7624 H   0  0  0  0  0  0  0  0  0  0  0  0
    2.4746    3.3903   -0.1585 H   0  0  0  0  0  0  0  0  0  0  0  0
    5.6903    1.9384   -1.4627 H   0  0  0  0  0  0  0  0  0  0  0  0
    5.4048    0.3114   -0.8453 H   0  0  0  0  0  0  0  0  0  0  0  0
    4.4357    0.9344   -2.1844 H   0  0  0  0  0  0  0  0  0  0  0  0
  1  2  1  0  0  0  0
  2  3  1  0  0  0  0
  3  4  2  0  0  0  0
  3  5  1  0  0  0  0
  5  6  1  0  0  0  0
  6  7  1  0  0  0  0
  7  8  2  0  0  0  0
  7  9  1  0  0  0  0
  9 10  1  0  0  0  0
 10 11  1  0  0  0  0
 11 12  1  0  0  0  0
 12 13  2  0  0  0  0
 13 14  1  0  0  0  0
 14 15  2  0  0  0  0
 15 16  1  0  0  0  0
 16 17  2  0  0  0  0
 17 18  1  0  0  0  0
 18 19  2  0  0  0  0
 19 20  1  0  0  0  0
 20 21  2  0  0  0  0
  5 22  1  0  0  0  0
 22 23  1  0  0  0  0
 22 24  1  0  0  0  0
 21 12  1  0  0  0  0
 21 16  1  0  0  0  0
  1 25  1  0  0  0  0
  1 26  1  0  0  0  0
  1 27  1  0  0  0  0
  5 28  1  0  0  0  0
  6 29  1  0  0  0  0
  9 30  1  0  0  0  0
  9 31  1  0  0  0  0
 10 32  1  0  0  0  0
 10 33  1  0  0  0  0
 11 34  1  0  0  0  0
 13 35  1  0  0  0  0
 14 36  1  0  0  0  0
 15 37  1  0  0  0  0
 17 38  1  0  0  0  0
 18 39  1  0  0  0  0
 19 40  1  0  0  0  0
 20 41  1  0  0  0  0
 22 42  1  0  0  0  0
 23 43  1  0  0  0  0
 23 44  1  0  0  0  0
 23 45  1  0  0  0  0
 24 46  1  0  0  0  0
 24 47  1  0  0  0  0
 24 48  1  0  0  0  0
M  END
