
  xtb     03022215353D
 energy: -108.394975464048 gnorm: 0.000177420403 xtb: 6.4.1 (afa7bdf)
 72 78  0     0  0            999 V2000
    3.2029   -0.8493    2.4272 C   0  0  0  0  0  0  0  0  0  0  0  0
    3.6324   -0.3822    1.1382 N   0  0  0  0  0  0  0  0  0  0  0  0
    2.8439    0.0654    0.1132 C   0  0  0  0  0  0  0  0  0  0  0  0
    1.3956   -0.0080    0.0523 C   0  0  0  0  0  0  0  0  0  0  0  0
    0.6545   -1.0537    0.6048 C   0  0  0  0  0  0  0  0  0  0  0  0
   -0.7192   -1.0698    0.4940 C   0  0  0  0  0  0  0  0  0  0  0  0
   -1.3982   -0.0536   -0.1803 C   0  0  0  0  0  0  0  0  0  0  0  0
   -2.8482   -0.1265   -0.2344 C   0  0  0  0  0  0  0  0  0  0  0  0
   -3.5684   -0.6292    0.7399 N   0  0  0  0  0  0  0  0  0  0  0  0
   -4.8727   -0.5418    0.3630 C   0  0  0  0  0  0  0  0  0  0  0  0
   -5.9333   -1.0190    1.2352 C   0  0  0  0  0  0  0  0  0  0  0  0
   -7.2278   -1.2563    0.7768 C   0  0  0  0  0  0  0  0  0  0  0  0
   -8.2032   -1.7077    1.6462 C   0  0  0  0  0  0  0  0  0  0  0  0
   -7.9045   -1.9355    2.9792 C   0  0  0  0  0  0  0  0  0  0  0  0
   -6.6164   -1.7150    3.4402 C   0  0  0  0  0  0  0  0  0  0  0  0
   -5.6389   -1.2615    2.5773 C   0  0  0  0  0  0  0  0  0  0  0  0
   -4.9400    0.0235   -0.9000 C   0  0  0  0  0  0  0  0  0  0  0  0
   -6.0836    0.3589   -1.7498 C   0  0  0  0  0  0  0  0  0  0  0  0
   -6.9523    1.3805   -1.3737 C   0  0  0  0  0  0  0  0  0  0  0  0
   -8.0346    1.7035   -2.1704 C   0  0  0  0  0  0  0  0  0  0  0  0
   -8.2611    1.0144   -3.3509 C   0  0  0  0  0  0  0  0  0  0  0  0
   -7.4049   -0.0058   -3.7291 C   0  0  0  0  0  0  0  0  0  0  0  0
   -6.3208   -0.3337   -2.9347 C   0  0  0  0  0  0  0  0  0  0  0  0
   -3.6435    0.2811   -1.2708 N   0  0  0  0  0  0  0  0  0  0  0  0
   -3.2392    0.8450   -2.5285 C   0  0  0  0  0  0  0  0  0  0  0  0
   -0.6574    0.9920   -0.7327 C   0  0  0  0  0  0  0  0  0  0  0  0
    0.7163    1.0080   -0.6219 C   0  0  0  0  0  0  0  0  0  0  0  0
    3.5695    0.5989   -0.8428 N   0  0  0  0  0  0  0  0  0  0  0  0
    4.8685    0.5014   -0.4585 C   0  0  0  0  0  0  0  0  0  0  0  0
    5.9406    0.9623   -1.3274 C   0  0  0  0  0  0  0  0  0  0  0  0
    7.2174    0.4055   -1.2847 C   0  0  0  0  0  0  0  0  0  0  0  0
    8.2093    0.8731   -2.1258 C   0  0  0  0  0  0  0  0  0  0  0  0
    7.9429    1.8934   -3.0241 C   0  0  0  0  0  0  0  0  0  0  0  0
    6.6706    2.4382   -3.0866 C   0  0  0  0  0  0  0  0  0  0  0  0
    5.6759    1.9755   -2.2478 C   0  0  0  0  0  0  0  0  0  0  0  0
    4.9318   -0.1006    0.7902 C   0  0  0  0  0  0  0  0  0  0  0  0
    6.0701   -0.3575    1.6617 C   0  0  0  0  0  0  0  0  0  0  0  0
    6.9967    0.6573    1.9038 C   0  0  0  0  0  0  0  0  0  0  0  0
    8.0835    0.4299    2.7248 C   0  0  0  0  0  0  0  0  0  0  0  0
    8.2628   -0.8095    3.3190 C   0  0  0  0  0  0  0  0  0  0  0  0
    7.3508   -1.8236    3.0816 C   0  0  0  0  0  0  0  0  0  0  0  0
    6.2609   -1.6019    2.2598 C   0  0  0  0  0  0  0  0  0  0  0  0
    3.1007   -1.9375    2.4458 H   0  0  0  0  0  0  0  0  0  0  0  0
    3.9392   -0.5596    3.1781 H   0  0  0  0  0  0  0  0  0  0  0  0
    2.2408   -0.4008    2.6756 H   0  0  0  0  0  0  0  0  0  0  0  0
    1.1508   -1.8785    1.0920 H   0  0  0  0  0  0  0  0  0  0  0  0
   -1.2965   -1.8736    0.9235 H   0  0  0  0  0  0  0  0  0  0  0  0
   -7.4707   -1.0978   -0.2629 H   0  0  0  0  0  0  0  0  0  0  0  0
   -9.2039   -1.8868    1.2790 H   0  0  0  0  0  0  0  0  0  0  0  0
   -8.6711   -2.2879    3.6540 H   0  0  0  0  0  0  0  0  0  0  0  0
   -6.3763   -1.8976    4.4780 H   0  0  0  0  0  0  0  0  0  0  0  0
   -4.6307   -1.0863    2.9190 H   0  0  0  0  0  0  0  0  0  0  0  0
   -6.7741    1.9101   -0.4493 H   0  0  0  0  0  0  0  0  0  0  0  0
   -8.7041    2.4960   -1.8703 H   0  0  0  0  0  0  0  0  0  0  0  0
   -9.1069    1.2685   -3.9724 H   0  0  0  0  0  0  0  0  0  0  0  0
   -7.5836   -0.5517   -4.6440 H   0  0  0  0  0  0  0  0  0  0  0  0
   -5.6672   -1.1471   -3.2193 H   0  0  0  0  0  0  0  0  0  0  0  0
   -3.1673    1.9345   -2.4643 H   0  0  0  0  0  0  0  0  0  0  0  0
   -2.2707    0.4383   -2.8193 H   0  0  0  0  0  0  0  0  0  0  0  0
   -3.9771    0.5989   -3.2917 H   0  0  0  0  0  0  0  0  0  0  0  0
   -1.1530    1.8177   -1.2189 H   0  0  0  0  0  0  0  0  0  0  0  0
    1.2932    1.8120   -1.0511 H   0  0  0  0  0  0  0  0  0  0  0  0
    7.4295   -0.4026   -0.6002 H   0  0  0  0  0  0  0  0  0  0  0  0
    9.1963    0.4349   -2.0838 H   0  0  0  0  0  0  0  0  0  0  0  0
    8.7226    2.2570   -3.6777 H   0  0  0  0  0  0  0  0  0  0  0  0
    6.4557    3.2275   -3.7929 H   0  0  0  0  0  0  0  0  0  0  0  0
    4.6788    2.3857   -2.2883 H   0  0  0  0  0  0  0  0  0  0  0  0
    6.8537    1.6219    1.4396 H   0  0  0  0  0  0  0  0  0  0  0  0
    8.7936    1.2234    2.9054 H   0  0  0  0  0  0  0  0  0  0  0  0
    9.1126   -0.9849    3.9617 H   0  0  0  0  0  0  0  0  0  0  0  0
    7.4902   -2.7941    3.5355 H   0  0  0  0  0  0  0  0  0  0  0  0
    5.5671   -2.4056    2.0597 H   0  0  0  0  0  0  0  0  0  0  0  0
  1  2  1  0  0  0  0
  2  3  1  0  0  0  0
  3  4  1  0  0  0  0
  4  5  2  0  0  0  0
  5  6  1  0  0  0  0
  6  7  2  0  0  0  0
  7  8  1  0  0  0  0
  8  9  2  0  0  0  0
  9 10  1  0  0  0  0
 10 11  1  0  0  0  0
 11 12  2  0  0  0  0
 12 13  1  0  0  0  0
 13 14  2  0  0  0  0
 14 15  1  0  0  0  0
 15 16  2  0  0  0  0
 10 17  2  0  0  0  0
 17 18  1  0  0  0  0
 18 19  2  0  0  0  0
 19 20  1  0  0  0  0
 20 21  2  0  0  0  0
 21 22  1  0  0  0  0
 22 23  2  0  0  0  0
 17 24  1  0  0  0  0
 24 25  1  0  0  0  0
  7 26  1  0  0  0  0
 26 27  2  0  0  0  0
  3 28  2  0  0  0  0
 28 29  1  0  0  0  0
 29 30  1  0  0  0  0
 30 31  2  0  0  0  0
 31 32  1  0  0  0  0
 32 33  2  0  0  0  0
 33 34  1  0  0  0  0
 34 35  2  0  0  0  0
 29 36  2  0  0  0  0
 36 37  1  0  0  0  0
 37 38  2  0  0  0  0
 38 39  1  0  0  0  0
 39 40  2  0  0  0  0
 40 41  1  0  0  0  0
 41 42  2  0  0  0  0
 36  2  1  0  0  0  0
 42 37  1  0  0  0  0
 27  4  1  0  0  0  0
 35 30  1  0  0  0  0
 24  8  1  0  0  0  0
 16 11  1  0  0  0  0
 23 18  1  0  0  0  0
  1 43  1  0  0  0  0
  1 44  1  0  0  0  0
  1 45  1  0  0  0  0
  5 46  1  0  0  0  0
  6 47  1  0  0  0  0
 12 48  1  0  0  0  0
 13 49  1  0  0  0  0
 14 50  1  0  0  0  0
 15 51  1  0  0  0  0
 16 52  1  0  0  0  0
 19 53  1  0  0  0  0
 20 54  1  0  0  0  0
 21 55  1  0  0  0  0
 22 56  1  0  0  0  0
 23 57  1  0  0  0  0
 25 58  1  0  0  0  0
 25 59  1  0  0  0  0
 25 60  1  0  0  0  0
 26 61  1  0  0  0  0
 27 62  1  0  0  0  0
 31 63  1  0  0  0  0
 32 64  1  0  0  0  0
 33 65  1  0  0  0  0
 34 66  1  0  0  0  0
 35 67  1  0  0  0  0
 38 68  1  0  0  0  0
 39 69  1  0  0  0  0
 40 70  1  0  0  0  0
 41 71  1  0  0  0  0
 42 72  1  0  0  0  0
M  END
