
  xtb     03022213363D
 energy: -83.852997218152 gnorm: 0.000564208724 xtb: 6.4.1 (afa7bdf)
 36 39  0     0  0            999 V2000
    1.6278   -1.4418    1.4033 O   0  0  0  0  0  0  0  0  0  0  0  0
    1.7772   -0.4526    0.7155 C   0  0  0  0  0  0  0  0  0  0  0  0
    0.6332    0.2753    0.1343 C   0  0  0  0  0  0  0  0  0  0  0  0
   -0.6437   -0.1252    0.3533 C   0  0  0  0  0  0  0  0  0  0  0  0
   -1.0767   -1.4959    1.3089 S   0  0  0  0  0  0  0  0  0  0  0  0
   -2.7881   -1.1827    1.0040 C   0  0  0  0  0  0  0  0  0  0  0  0
   -3.8390   -1.9398    1.4983 C   0  0  0  0  0  0  0  0  0  0  0  0
   -5.1327   -1.5652    1.1712 C   0  0  0  0  0  0  0  0  0  0  0  0
   -5.3523   -0.4575    0.3704 C   0  0  0  0  0  0  0  0  0  0  0  0
   -7.0272   -0.0422   -0.0570 S   0  0  0  0  0  6  0  0  0  0  0  0
   -7.1286    1.3363   -0.4227 O   0  0  0  0  0  0  0  0  0  0  0  0
   -7.9146   -0.5835    0.9157 O   0  0  0  0  0  0  0  0  0  0  0  0
   -7.1719   -0.8972   -1.4219 O   0  0  0  0  0  0  0  0  0  0  0  0
   -4.3216    0.3079   -0.1278 C   0  0  0  0  0  0  0  0  0  0  0  0
   -3.0209   -0.0609    0.1935 C   0  0  0  0  0  0  0  0  0  0  0  0
   -1.7873    0.6042   -0.2268 C   0  0  0  0  0  0  0  0  0  0  0  0
   -1.6361    1.5830   -0.9291 O   0  0  0  0  0  0  0  0  0  0  0  0
    1.0652    1.6455   -0.8225 S   0  0  0  0  0  0  0  0  0  0  0  0
    2.7762    1.3410   -0.5072 C   0  0  0  0  0  0  0  0  0  0  0  0
    3.8259    2.1063   -0.9912 C   0  0  0  0  0  0  0  0  0  0  0  0
    5.1194    1.7395   -0.6549 C   0  0  0  0  0  0  0  0  0  0  0  0
    5.3399    0.6335    0.1482 C   0  0  0  0  0  0  0  0  0  0  0  0
    7.0183    0.1765    0.5146 S   0  0  0  0  0  6  0  0  0  0  0  0
    7.8625    1.3144    0.3765 O   0  0  0  0  0  0  0  0  0  0  0  0
    7.0789   -0.6133    1.7049 O   0  0  0  0  0  0  0  0  0  0  0  0
    7.2954   -0.8263   -0.7236 O   0  0  0  0  0  0  0  0  0  0  0  0
    4.3102   -0.1369    0.6406 C   0  0  0  0  0  0  0  0  0  0  0  0
    3.0097    0.2221    0.3072 C   0  0  0  0  0  0  0  0  0  0  0  0
   -3.6469   -2.7973    2.1230 H   0  0  0  0  0  0  0  0  0  0  0  0
   -5.9897   -2.1103    1.5325 H   0  0  0  0  0  0  0  0  0  0  0  0
   -7.3507   -0.3087   -2.1578 H   0  0  0  0  0  0  0  0  0  0  0  0
   -4.5219    1.1753   -0.7366 H   0  0  0  0  0  0  0  0  0  0  0  0
    3.6330    2.9658   -1.6130 H   0  0  0  0  0  0  0  0  0  0  0  0
    5.9749    2.3003   -0.9951 H   0  0  0  0  0  0  0  0  0  0  0  0
    7.4925   -1.7050   -0.3936 H   0  0  0  0  0  0  0  0  0  0  0  0
    4.5097   -0.9841    1.2773 H   0  0  0  0  0  0  0  0  0  0  0  0
  1  2  2  0  0  0  0
  2  3  1  0  0  0  0
  3  4  2  0  0  0  0
  4  5  1  0  0  0  0
  5  6  1  0  0  0  0
  6  7  2  0  0  0  0
  7  8  1  0  0  0  0
  8  9  2  0  0  0  0
  9 10  1  0  0  0  0
 10 11  2  0  0  0  0
 10 12  2  0  0  0  0
 10 13  1  0  0  0  0
  9 14  1  0  0  0  0
 14 15  2  0  0  0  0
 15 16  1  0  0  0  0
 16 17  2  0  0  0  0
  3 18  1  0  0  0  0
 18 19  1  0  0  0  0
 19 20  2  0  0  0  0
 20 21  1  0  0  0  0
 21 22  2  0  0  0  0
 22 23  1  0  0  0  0
 23 24  2  0  0  0  0
 23 25  2  0  0  0  0
 23 26  1  0  0  0  0
 22 27  1  0  0  0  0
 27 28  2  0  0  0  0
 28  2  1  0  0  0  0
 16  4  1  0  0  0  0
 28 19  1  0  0  0  0
 15  6  1  0  0  0  0
  7 29  1  0  0  0  0
  8 30  1  0  0  0  0
 13 31  1  0  0  0  0
 14 32  1  0  0  0  0
 20 33  1  0  0  0  0
 21 34  1  0  0  0  0
 26 35  1  0  0  0  0
 27 36  1  0  0  0  0
M  END
