
  xtb     03022214173D
 energy: -54.638598177220 gnorm: 0.000109859464 xtb: 6.4.1 (afa7bdf)
 34 36  0     0  0            999 V2000
   -1.8928   -0.7628    0.1587 C   0  0  0  0  0  0  0  0  0  0  0  0
   -1.4073   -1.8109    0.5155 C   0  0  0  0  0  0  0  0  0  0  0  0
   -0.7381   -2.9742    0.9383 C   0  0  0  0  0  0  0  0  0  0  0  0
   -1.4272   -4.0748    1.2208 N   0  0  0  0  0  0  0  0  0  0  0  0
   -0.7486   -5.1285    1.6431 C   0  0  0  0  0  0  0  0  0  0  0  0
    0.6312   -5.0917    1.8082 C   0  0  0  0  0  0  0  0  0  0  0  0
    1.3391   -4.0142    1.5124 N   0  0  0  0  0  0  0  0  0  0  0  0
    0.6797   -2.9514    1.0645 C   0  0  0  0  0  0  0  0  0  0  0  0
    1.3795   -1.7852    0.7020 C   0  0  0  0  0  0  0  0  0  0  0  0
    1.8881   -0.7443    0.3565 C   0  0  0  0  0  0  0  0  0  0  0  0
    2.4664    0.4748   -0.0523 C   0  0  0  0  0  0  0  0  0  0  0  0
    1.8857    1.1959   -1.0987 C   0  0  0  0  0  0  0  0  0  0  0  0
    2.4358    2.3994   -1.4939 C   0  0  0  0  0  0  0  0  0  0  0  0
    3.5623    2.8953   -0.8557 C   0  0  0  0  0  0  0  0  0  0  0  0
    4.1434    2.1809    0.1806 C   0  0  0  0  0  0  0  0  0  0  0  0
    3.6038    0.9750    0.5841 C   0  0  0  0  0  0  0  0  0  0  0  0
   -2.4480    0.4629   -0.2608 C   0  0  0  0  0  0  0  0  0  0  0  0
   -3.7496    0.5225   -0.7629 C   0  0  0  0  0  0  0  0  0  0  0  0
   -4.2710    1.7315   -1.1803 C   0  0  0  0  0  0  0  0  0  0  0  0
   -3.5079    2.8863   -1.1020 C   0  0  0  0  0  0  0  0  0  0  0  0
   -2.2167    2.8323   -0.5995 C   0  0  0  0  0  0  0  0  0  0  0  0
   -1.6841    1.6300   -0.1782 C   0  0  0  0  0  0  0  0  0  0  0  0
   -1.3298   -6.0148    1.8566 H   0  0  0  0  0  0  0  0  0  0  0  0
    1.1889   -5.9408    2.1784 H   0  0  0  0  0  0  0  0  0  0  0  0
    1.0108    0.7993   -1.5936 H   0  0  0  0  0  0  0  0  0  0  0  0
    1.9844    2.9545   -2.3033 H   0  0  0  0  0  0  0  0  0  0  0  0
    3.9882    3.8376   -1.1671 H   0  0  0  0  0  0  0  0  0  0  0  0
    5.0225    2.5673    0.6754 H   0  0  0  0  0  0  0  0  0  0  0  0
    4.0493    0.4131    1.3916 H   0  0  0  0  0  0  0  0  0  0  0  0
   -4.3363   -0.3823   -0.8217 H   0  0  0  0  0  0  0  0  0  0  0  0
   -5.2779    1.7759   -1.5691 H   0  0  0  0  0  0  0  0  0  0  0  0
   -3.9200    3.8287   -1.4312 H   0  0  0  0  0  0  0  0  0  0  0  0
   -1.6228    3.7325   -0.5363 H   0  0  0  0  0  0  0  0  0  0  0  0
   -0.6809    1.5795    0.2196 H   0  0  0  0  0  0  0  0  0  0  0  0
  1  2  3  0  0  0  0
  2  3  1  0  0  0  0
  3  4  2  0  0  0  0
  4  5  1  0  0  0  0
  5  6  2  0  0  0  0
  6  7  1  0  0  0  0
  7  8  2  0  0  0  0
  8  9  1  0  0  0  0
  9 10  3  0  0  0  0
 10 11  1  0  0  0  0
 11 12  2  0  0  0  0
 12 13  1  0  0  0  0
 13 14  2  0  0  0  0
 14 15  1  0  0  0  0
 15 16  2  0  0  0  0
  1 17  1  0  0  0  0
 17 18  2  0  0  0  0
 18 19  1  0  0  0  0
 19 20  2  0  0  0  0
 20 21  1  0  0  0  0
 21 22  2  0  0  0  0
  8  3  1  0  0  0  0
 16 11  1  0  0  0  0
 22 17  1  0  0  0  0
  5 23  1  0  0  0  0
  6 24  1  0  0  0  0
 12 25  1  0  0  0  0
 13 26  1  0  0  0  0
 14 27  1  0  0  0  0
 15 28  1  0  0  0  0
 16 29  1  0  0  0  0
 18 30  1  0  0  0  0
 19 31  1  0  0  0  0
 20 32  1  0  0  0  0
 21 33  1  0  0  0  0
 22 34  1  0  0  0  0
M  END
