
  xtb     03022214333D
 energy: -62.834807229585 gnorm: 0.000347104897 xtb: 6.4.1 (afa7bdf)
 42 46  0     0  0            999 V2000
    6.3602   -0.2565   -1.0791 N   0  0  0  0  0  0  0  0  0  0  0  0
    5.1654   -0.2584   -0.4174 C   0  0  0  0  0  0  0  0  0  0  0  0
    5.1324   -0.2739    0.9842 C   0  0  0  0  0  0  0  0  0  0  0  0
    3.9403   -0.2207    1.6835 C   0  0  0  0  0  0  0  0  0  0  0  0
    2.7629   -0.1528    0.9612 C   0  0  0  0  0  0  0  0  0  0  0  0
    2.7875   -0.1355   -0.4323 C   0  0  0  0  0  0  0  0  0  0  0  0
    3.9625   -0.1871   -1.1409 C   0  0  0  0  0  0  0  0  0  0  0  0
    1.3859   -0.0588   -0.9031 C   0  0  0  0  0  0  0  0  0  0  0  0
    1.0032   -0.0203   -2.0489 O   0  0  0  0  0  0  0  0  0  0  0  0
    0.5876   -0.0377    0.2339 N   0  0  0  0  0  0  0  0  0  0  0  0
   -0.8840    0.0443    0.1281 C   0  0  0  0  0  0  0  0  0  0  0  0
   -1.5594    0.0414    1.5007 C   0  0  0  0  0  0  0  0  0  0  0  0
   -3.0765    0.1292    1.3300 C   0  0  0  0  0  0  0  0  0  0  0  0
   -3.4403    1.4206    0.6014 C   0  0  0  0  0  0  0  0  0  0  0  0
   -2.7699    1.4232   -0.7702 C   0  0  0  0  0  0  0  0  0  0  0  0
   -1.2537    1.3423   -0.6017 C   0  0  0  0  0  0  0  0  0  0  0  0
   -3.2557    0.2239   -1.5826 C   0  0  0  0  0  0  0  0  0  0  0  0
   -2.9068   -1.0663   -0.8421 C   0  0  0  0  0  0  0  0  0  0  0  0
   -1.3915   -1.1622   -0.6729 C   0  0  0  0  0  0  0  0  0  0  0  0
   -3.5781   -1.0698    0.5289 C   0  0  0  0  0  0  0  0  0  0  0  0
    1.3588   -0.0901    1.4022 C   0  0  0  0  0  0  0  0  0  0  0  0
    0.9549   -0.0855    2.5390 O   0  0  0  0  0  0  0  0  0  0  0  0
    7.1898   -0.5106   -0.5722 H   0  0  0  0  0  0  0  0  0  0  0  0
    6.3575   -0.4446   -2.0664 H   0  0  0  0  0  0  0  0  0  0  0  0
    6.0682   -0.3276    1.5214 H   0  0  0  0  0  0  0  0  0  0  0  0
    3.9242   -0.2342    2.7619 H   0  0  0  0  0  0  0  0  0  0  0  0
    3.9646   -0.1732   -2.2200 H   0  0  0  0  0  0  0  0  0  0  0  0
   -1.3039   -0.8705    2.0414 H   0  0  0  0  0  0  0  0  0  0  0  0
   -1.2096    0.8881    2.0921 H   0  0  0  0  0  0  0  0  0  0  0  0
   -3.5403    0.1259    2.3226 H   0  0  0  0  0  0  0  0  0  0  0  0
   -3.1059    2.2832    1.1823 H   0  0  0  0  0  0  0  0  0  0  0  0
   -4.5244    1.4930    0.4878 H   0  0  0  0  0  0  0  0  0  0  0  0
   -3.0199    2.3492   -1.3003 H   0  0  0  0  0  0  0  0  0  0  0  0
   -0.8908    2.1971   -0.0247 H   0  0  0  0  0  0  0  0  0  0  0  0
   -0.7752    1.3625   -1.5810 H   0  0  0  0  0  0  0  0  0  0  0  0
   -4.3363    0.2875   -1.7294 H   0  0  0  0  0  0  0  0  0  0  0  0
   -2.7806    0.2262   -2.5656 H   0  0  0  0  0  0  0  0  0  0  0  0
   -3.2546   -1.9271   -1.4245 H   0  0  0  0  0  0  0  0  0  0  0  0
   -0.9153   -1.1800   -1.6532 H   0  0  0  0  0  0  0  0  0  0  0  0
   -1.1271   -2.0830   -0.1461 H   0  0  0  0  0  0  0  0  0  0  0  0
   -4.6631   -1.0152    0.4143 H   0  0  0  0  0  0  0  0  0  0  0  0
   -3.3430   -1.9963    1.0576 H   0  0  0  0  0  0  0  0  0  0  0  0
  1  2  1  0  0  0  0
  2  3  1  0  0  0  0
  3  4  2  0  0  0  0
  4  5  1  0  0  0  0
  5  6  2  0  0  0  0
  6  7  1  0  0  0  0
  6  8  1  0  0  0  0
  8  9  2  0  0  0  0
  8 10  1  0  0  0  0
 10 11  1  0  0  0  0
 11 12  1  0  0  0  0
 12 13  1  0  0  0  0
 13 14  1  0  0  0  0
 14 15  1  0  0  0  0
 15 16  1  0  0  0  0
 15 17  1  0  0  0  0
 17 18  1  0  0  0  0
 18 19  1  0  0  0  0
 18 20  1  0  0  0  0
 10 21  1  0  0  0  0
 21 22  2  0  0  0  0
  7  2  2  0  0  0  0
 16 11  1  0  0  0  0
 21  5  1  0  0  0  0
 19 11  1  0  0  0  0
 20 13  1  0  0  0  0
  1 23  1  0  0  0  0
  1 24  1  0  0  0  0
  3 25  1  0  0  0  0
  4 26  1  0  0  0  0
  7 27  1  0  0  0  0
 12 28  1  0  0  0  0
 12 29  1  0  0  0  0
 13 30  1  0  0  0  0
 14 31  1  0  0  0  0
 14 32  1  0  0  0  0
 15 33  1  0  0  0  0
 16 34  1  0  0  0  0
 16 35  1  0  0  0  0
 17 36  1  0  0  0  0
 17 37  1  0  0  0  0
 18 38  1  0  0  0  0
 19 39  1  0  0  0  0
 19 40  1  0  0  0  0
 20 41  1  0  0  0  0
 20 42  1  0  0  0  0
M  END
