
  xtb     03022212123D
 energy: -54.649068369600 gnorm: 0.000133229780 xtb: 6.4.1 (afa7bdf)
 37 39  0     0  0            999 V2000
   -2.3008    0.1851    0.1676 C   0  0  0  0  0  0  0  0  0  0  0  0
   -3.3505    0.0995   -0.6652 C   0  0  0  0  0  0  0  0  0  0  0  0
   -4.7446    0.0720   -0.2772 C   0  0  0  0  0  0  0  0  0  0  0  0
   -5.2047    0.1703    1.0403 C   0  0  0  0  0  0  0  0  0  0  0  0
   -6.5627    0.1302    1.2919 C   0  0  0  0  0  0  0  0  0  0  0  0
   -7.4354   -0.0067    0.2216 C   0  0  0  0  0  0  0  0  0  0  0  0
   -7.0241   -0.0991   -1.0325 N   0  0  0  0  0  0  0  0  0  0  0  0
   -5.7287   -0.0601   -1.2669 C   0  0  0  0  0  0  0  0  0  0  0  0
   -0.9033    0.2119   -0.2016 C   0  0  0  0  0  0  0  0  0  0  0  0
   -0.4482    0.1863   -1.5246 C   0  0  0  0  0  0  0  0  0  0  0  0
    0.8956    0.2065   -1.8146 C   0  0  0  0  0  0  0  0  0  0  0  0
    1.8549    0.2442   -0.7962 C   0  0  0  0  0  0  0  0  0  0  0  0
    3.1885    0.2821   -1.1424 N   0  0  0  0  0  0  0  0  0  0  0  0
    4.2976   -0.0327   -0.3731 C   0  0  0  0  0  0  0  0  0  0  0  0
    4.2463   -0.9529    0.6742 C   0  0  0  0  0  0  0  0  0  0  0  0
    5.3873   -1.2474    1.3956 C   0  0  0  0  0  0  0  0  0  0  0  0
    6.5964   -0.6488    1.0829 C   0  0  0  0  0  0  0  0  0  0  0  0
    6.6609    0.2400    0.0224 C   0  0  0  0  0  0  0  0  0  0  0  0
    5.5257    0.5448   -0.7015 C   0  0  0  0  0  0  0  0  0  0  0  0
    1.4105    0.3047    0.5270 C   0  0  0  0  0  0  0  0  0  0  0  0
    0.0633    0.2841    0.8081 C   0  0  0  0  0  0  0  0  0  0  0  0
   -2.4773    0.2371    1.2345 H   0  0  0  0  0  0  0  0  0  0  0  0
   -3.1858    0.0380   -1.7326 H   0  0  0  0  0  0  0  0  0  0  0  0
   -4.5093    0.2791    1.8593 H   0  0  0  0  0  0  0  0  0  0  0  0
   -6.9403    0.2048    2.3006 H   0  0  0  0  0  0  0  0  0  0  0  0
   -8.5067   -0.0433    0.3686 H   0  0  0  0  0  0  0  0  0  0  0  0
   -5.4444   -0.1398   -2.3096 H   0  0  0  0  0  0  0  0  0  0  0  0
   -1.1556    0.1505   -2.3384 H   0  0  0  0  0  0  0  0  0  0  0  0
    1.2241    0.1901   -2.8449 H   0  0  0  0  0  0  0  0  0  0  0  0
    3.3860    0.5971   -2.0813 H   0  0  0  0  0  0  0  0  0  0  0  0
    3.3197   -1.4569    0.9009 H   0  0  0  0  0  0  0  0  0  0  0  0
    5.3324   -1.9620    2.2038 H   0  0  0  0  0  0  0  0  0  0  0  0
    7.4831   -0.8825    1.6520 H   0  0  0  0  0  0  0  0  0  0  0  0
    7.6016    0.7006   -0.2417 H   0  0  0  0  0  0  0  0  0  0  0  0
    5.5798    1.2374   -1.5302 H   0  0  0  0  0  0  0  0  0  0  0  0
    2.1253    0.3996    1.3295 H   0  0  0  0  0  0  0  0  0  0  0  0
   -0.2567    0.3358    1.8395 H   0  0  0  0  0  0  0  0  0  0  0  0
  1  2  2  0  0  0  0
  2  3  1  0  0  0  0
  3  4  2  0  0  0  0
  4  5  1  0  0  0  0
  5  6  2  0  0  0  0
  6  7  1  0  0  0  0
  7  8  2  0  0  0  0
  1  9  1  0  0  0  0
  9 10  2  0  0  0  0
 10 11  1  0  0  0  0
 11 12  2  0  0  0  0
 12 13  1  0  0  0  0
 13 14  1  0  0  0  0
 14 15  2  0  0  0  0
 15 16  1  0  0  0  0
 16 17  2  0  0  0  0
 17 18  1  0  0  0  0
 18 19  2  0  0  0  0
 12 20  1  0  0  0  0
 20 21  2  0  0  0  0
  8  3  1  0  0  0  0
 21  9  1  0  0  0  0
 19 14  1  0  0  0  0
  1 22  1  0  0  0  0
  2 23  1  0  0  0  0
  4 24  1  0  0  0  0
  5 25  1  0  0  0  0
  6 26  1  0  0  0  0
  8 27  1  0  0  0  0
 10 28  1  0  0  0  0
 11 29  1  0  0  0  0
 13 30  1  0  0  0  0
 15 31  1  0  0  0  0
 16 32  1  0  0  0  0
 17 33  1  0  0  0  0
 18 34  1  0  0  0  0
 19 35  1  0  0  0  0
 20 36  1  0  0  0  0
 21 37  1  0  0  0  0
M  END
