
  xtb     03022214103D
 energy: -85.462320449890 gnorm: 0.000235618932 xtb: 6.4.1 (afa7bdf)
 48 52  0     0  0            999 V2000
   -5.2980    0.1027   -3.1450 C   0  0  0  0  0  0  0  0  0  0  0  0
   -3.9752    0.1610   -2.4450 C   0  0  0  0  0  0  0  0  0  0  0  0
   -3.8293    1.0316   -1.3468 C   0  0  0  0  0  0  0  0  0  0  0  0
   -2.6541    1.1632   -0.6451 C   0  0  0  0  0  0  0  0  0  0  0  0
   -1.5854    0.3905   -1.0787 C   0  0  0  0  0  0  0  0  0  0  0  0
   -1.7187   -0.5116   -2.1594 C   0  0  0  0  0  0  0  0  0  0  0  0
   -2.9208   -0.6248   -2.8555 C   0  0  0  0  0  0  0  0  0  0  0  0
   -0.5289   -1.1594   -2.3015 N   0  0  0  0  0  0  0  0  0  0  0  0
    0.2833   -0.7421   -1.4306 N   0  0  0  0  0  0  0  0  0  0  0  0
   -0.2931    0.2007   -0.6518 N   0  0  0  0  0  0  0  0  0  0  0  0
    0.3643    0.8904    0.3461 C   0  0  0  0  0  0  0  0  0  0  0  0
    0.2805    2.2530    0.5822 C   0  0  0  0  0  0  0  0  0  0  0  0
   -0.3896    3.2271   -0.1603 C   0  0  0  0  0  0  0  0  0  0  0  0
   -0.9101    4.0808   -0.7269 N   0  0  0  0  0  0  0  0  0  0  0  0
    1.0792    2.5114    1.7401 C   0  0  0  0  0  0  0  0  0  0  0  0
    1.4461    3.6280    2.5194 C   0  0  0  0  0  0  0  0  0  0  0  0
    1.0099    4.8739    2.2681 N   0  0  0  0  0  0  0  0  0  0  0  0
    2.2427    3.4372    3.5722 N   0  0  0  0  0  0  0  0  0  0  0  0
    2.6583    2.2133    3.8496 C   0  0  0  0  0  0  0  0  0  0  0  0
    2.3938    1.0957    3.2003 N   0  0  0  0  0  0  0  0  0  0  0  0
    1.6082    1.2749    2.1409 C   0  0  0  0  0  0  0  0  0  0  0  0
    1.1617    0.2948    1.2932 N   0  0  0  0  0  0  0  0  0  0  0  0
    1.6423   -1.0593    1.3948 C   0  0  0  0  0  0  0  0  0  0  0  0
    0.5557   -2.1530    1.3347 C   0  0  0  0  0  0  0  0  0  0  0  0
    1.0873   -3.1557    0.2879 C   0  0  0  0  0  0  0  0  0  0  0  0
    0.9702   -4.4958    0.6614 O   0  0  0  0  0  0  0  0  0  0  0  0
    2.5521   -2.6949    0.0893 C   0  0  0  0  0  0  0  0  0  0  0  0
    3.1313   -2.9832   -1.3033 C   0  0  0  0  0  0  0  0  0  0  0  0
    2.7827   -2.0534   -2.2803 O   0  0  0  0  0  0  0  0  0  0  0  0
    2.5514   -1.3096    0.3505 O   0  0  0  0  0  0  0  0  0  0  0  0
   -5.5484    1.0795   -3.5565 H   0  0  0  0  0  0  0  0  0  0  0  0
   -6.0855   -0.1752   -2.4459 H   0  0  0  0  0  0  0  0  0  0  0  0
   -5.2779   -0.6214   -3.9546 H   0  0  0  0  0  0  0  0  0  0  0  0
   -4.6839    1.6192   -1.0461 H   0  0  0  0  0  0  0  0  0  0  0  0
   -2.5727    1.8324    0.1963 H   0  0  0  0  0  0  0  0  0  0  0  0
   -3.0050   -1.3121   -3.6813 H   0  0  0  0  0  0  0  0  0  0  0  0
    1.3681    5.6236    2.8328 H   0  0  0  0  0  0  0  0  0  0  0  0
    0.4850    5.0772    1.4356 H   0  0  0  0  0  0  0  0  0  0  0  0
    3.2958    2.1190    4.7180 H   0  0  0  0  0  0  0  0  0  0  0  0
    2.1702   -1.0817    2.3631 H   0  0  0  0  0  0  0  0  0  0  0  0
   -0.4143   -1.7477    1.0561 H   0  0  0  0  0  0  0  0  0  0  0  0
    0.4479   -2.6418    2.3032 H   0  0  0  0  0  0  0  0  0  0  0  0
    0.5351   -3.0739   -0.6514 H   0  0  0  0  0  0  0  0  0  0  0  0
    1.5059   -4.6634    1.4470 H   0  0  0  0  0  0  0  0  0  0  0  0
    3.1732   -3.2159    0.8428 H   0  0  0  0  0  0  0  0  0  0  0  0
    4.2240   -2.9729   -1.2504 H   0  0  0  0  0  0  0  0  0  0  0  0
    2.8041   -3.9993   -1.5825 H   0  0  0  0  0  0  0  0  0  0  0  0
    1.8809   -1.7330   -2.1266 H   0  0  0  0  0  0  0  0  0  0  0  0
  1  2  1  0  0  0  0
  2  3  2  0  0  0  0
  3  4  1  0  0  0  0
  4  5  2  0  0  0  0
  5  6  1  0  0  0  0
  6  7  2  0  0  0  0
  6  8  1  0  0  0  0
  8  9  2  0  0  0  0
  9 10  1  0  0  0  0
 10 11  1  0  0  0  0
 11 12  2  0  0  0  0
 12 13  1  0  0  0  0
 13 14  3  0  0  0  0
 12 15  1  0  0  0  0
 15 16  2  0  0  0  0
 16 17  1  0  0  0  0
 16 18  1  0  0  0  0
 18 19  2  0  0  0  0
 19 20  1  0  0  0  0
 20 21  2  0  0  0  0
 21 22  1  0  0  0  0
 22 23  1  0  0  0  0
 23 24  1  0  0  0  0
 24 25  1  0  0  0  0
 25 26  1  0  0  0  0
 25 27  1  0  0  0  0
 27 28  1  0  0  0  0
 28 29  1  0  0  0  0
 27 30  1  0  0  0  0
  7  2  1  0  0  0  0
 22 11  1  0  0  0  0
 30 23  1  0  0  0  0
 10  5  1  0  0  0  0
 21 15  1  0  0  0  0
  1 31  1  0  0  0  0
  1 32  1  0  0  0  0
  1 33  1  0  0  0  0
  3 34  1  0  0  0  0
  4 35  1  0  0  0  0
  7 36  1  0  0  0  0
 17 37  1  0  0  0  0
 17 38  1  0  0  0  0
 19 39  1  0  0  0  0
 23 40  1  0  0  0  0
 24 41  1  0  0  0  0
 24 42  1  0  0  0  0
 25 43  1  0  0  0  0
 26 44  1  0  0  0  0
 27 45  1  0  0  0  0
 28 46  1  0  0  0  0
 28 47  1  0  0  0  0
 29 48  1  0  0  0  0
M  END
