
  xtb     03022213263D
 energy: -121.474609728637 gnorm: 0.000236283549 xtb: 6.4.1 (afa7bdf)
 90 93  0     0  0            999 V2000
   -4.2280   -6.9575   -1.5049 C   0  0  0  0  0  0  0  0  0  0  0  0
   -4.9811   -6.0062   -0.9877 C   0  0  0  0  0  0  0  0  0  0  0  0
   -5.9004   -5.1219   -1.7855 C   0  0  0  0  0  0  0  0  0  0  0  0
   -5.9936   -3.7757   -1.2633 N   0  0  0  0  0  0  0  0  0  0  0  0
   -7.2491   -3.3725   -0.6720 C   0  0  0  0  0  0  0  0  0  0  0  0
   -7.3994   -3.7712    0.7718 C   0  0  0  0  0  0  0  0  0  0  0  0
   -7.8451   -2.9760    1.7249 C   0  0  0  0  0  0  0  0  0  0  0  0
   -4.8452   -3.0364   -1.0597 C   0  0  0  0  0  0  0  0  0  0  0  0
   -4.8191   -1.9297   -0.2029 C   0  0  0  0  0  0  0  0  0  0  0  0
   -3.6786   -1.1687   -0.0557 C   0  0  0  0  0  0  0  0  0  0  0  0
   -2.5034   -1.4774   -0.7345 C   0  0  0  0  0  0  0  0  0  0  0  0
   -1.2912   -0.6660   -0.5666 C   0  0  0  0  0  0  0  0  0  0  0  0
   -1.3761    0.7202   -0.4856 C   0  0  0  0  0  0  0  0  0  0  0  0
   -0.2349    1.5015   -0.3355 C   0  0  0  0  0  0  0  0  0  0  0  0
   -0.3371    2.9641   -0.2598 C   0  0  0  0  0  0  0  0  0  0  0  0
   -1.3684    3.5820    0.4435 C   0  0  0  0  0  0  0  0  0  0  0  0
   -1.4647    4.9548    0.5188 C   0  0  0  0  0  0  0  0  0  0  0  0
   -0.5373    5.7818   -0.1277 C   0  0  0  0  0  0  0  0  0  0  0  0
   -0.6496    7.1546   -0.0510 N   0  0  0  0  0  0  0  0  0  0  0  0
   -1.9470    7.7640    0.1137 C   0  0  0  0  0  0  0  0  0  0  0  0
   -2.2583    8.2469    1.5049 C   0  0  0  0  0  0  0  0  0  0  0  0
   -1.4311    8.2002    2.5302 C   0  0  0  0  0  0  0  0  0  0  0  0
    0.4323    8.0163   -0.4579 C   0  0  0  0  0  0  0  0  0  0  0  0
    1.7101    7.8652    0.3206 C   0  0  0  0  0  0  0  0  0  0  0  0
    1.9429    7.0300    1.3146 C   0  0  0  0  0  0  0  0  0  0  0  0
    0.5051    5.1598   -0.8249 C   0  0  0  0  0  0  0  0  0  0  0  0
    0.5993    3.7860   -0.8824 C   0  0  0  0  0  0  0  0  0  0  0  0
    1.0049    0.8746   -0.2624 C   0  0  0  0  0  0  0  0  0  0  0  0
    1.1154   -0.5101   -0.3390 C   0  0  0  0  0  0  0  0  0  0  0  0
    2.4304   -1.1588   -0.2553 C   0  0  0  0  0  0  0  0  0  0  0  0
    2.6077   -2.3487    0.4463 C   0  0  0  0  0  0  0  0  0  0  0  0
    3.8404   -2.9601    0.5274 C   0  0  0  0  0  0  0  0  0  0  0  0
    4.9646   -2.4037   -0.0951 C   0  0  0  0  0  0  0  0  0  0  0  0
    6.1945   -3.0167   -0.0166 N   0  0  0  0  0  0  0  0  0  0  0  0
    7.2767   -2.6615   -0.8964 C   0  0  0  0  0  0  0  0  0  0  0  0
    8.1534   -1.5387   -0.4054 C   0  0  0  0  0  0  0  0  0  0  0  0
    7.9424   -0.8390    0.6924 C   0  0  0  0  0  0  0  0  0  0  0  0
    6.4820   -3.9864    1.0154 C   0  0  0  0  0  0  0  0  0  0  0  0
    6.1089   -5.3893    0.6179 C   0  0  0  0  0  0  0  0  0  0  0  0
    5.5724   -6.2788    1.4308 C   0  0  0  0  0  0  0  0  0  0  0  0
    4.7860   -1.2076   -0.8007 C   0  0  0  0  0  0  0  0  0  0  0  0
    3.5480   -0.6061   -0.8758 C   0  0  0  0  0  0  0  0  0  0  0  0
   -0.0401   -1.2695   -0.4925 C   0  0  0  0  0  0  0  0  0  0  0  0
   -2.5221   -2.5891   -1.5730 C   0  0  0  0  0  0  0  0  0  0  0  0
   -3.6600   -3.3482   -1.7385 C   0  0  0  0  0  0  0  0  0  0  0  0
   -4.2153   -7.1575   -2.5645 H   0  0  0  0  0  0  0  0  0  0  0  0
   -3.5966   -7.5808   -0.8957 H   0  0  0  0  0  0  0  0  0  0  0  0
   -4.9726   -5.8149    0.0771 H   0  0  0  0  0  0  0  0  0  0  0  0
   -5.5839   -5.1037   -2.8366 H   0  0  0  0  0  0  0  0  0  0  0  0
   -6.9048   -5.5578   -1.7609 H   0  0  0  0  0  0  0  0  0  0  0  0
   -7.3675   -2.2910   -0.7815 H   0  0  0  0  0  0  0  0  0  0  0  0
   -8.0533   -3.8456   -1.2502 H   0  0  0  0  0  0  0  0  0  0  0  0
   -7.1144   -4.7906    0.9961 H   0  0  0  0  0  0  0  0  0  0  0  0
   -7.9462   -3.3056    2.7450 H   0  0  0  0  0  0  0  0  0  0  0  0
   -8.1374   -1.9575    1.5240 H   0  0  0  0  0  0  0  0  0  0  0  0
   -5.6881   -1.6668    0.3776 H   0  0  0  0  0  0  0  0  0  0  0  0
   -3.6934   -0.3323    0.6285 H   0  0  0  0  0  0  0  0  0  0  0  0
   -2.3395    1.1995   -0.5817 H   0  0  0  0  0  0  0  0  0  0  0  0
   -2.0911    2.9752    0.9700 H   0  0  0  0  0  0  0  0  0  0  0  0
   -2.2517    5.3919    1.1147 H   0  0  0  0  0  0  0  0  0  0  0  0
   -2.7212    7.0512   -0.1938 H   0  0  0  0  0  0  0  0  0  0  0  0
   -2.0306    8.6211   -0.5704 H   0  0  0  0  0  0  0  0  0  0  0  0
   -3.2528    8.6623    1.6106 H   0  0  0  0  0  0  0  0  0  0  0  0
   -0.4392    7.7938    2.4349 H   0  0  0  0  0  0  0  0  0  0  0  0
   -1.7115    8.5649    3.5035 H   0  0  0  0  0  0  0  0  0  0  0  0
    0.6648    7.8904   -1.5301 H   0  0  0  0  0  0  0  0  0  0  0  0
    0.0974    9.0508   -0.3290 H   0  0  0  0  0  0  0  0  0  0  0  0
    2.4862    8.5449   -0.0104 H   0  0  0  0  0  0  0  0  0  0  0  0
    1.2069    6.3269    1.6647 H   0  0  0  0  0  0  0  0  0  0  0  0
    2.8973    7.0060    1.8128 H   0  0  0  0  0  0  0  0  0  0  0  0
    1.2526    5.7513   -1.3286 H   0  0  0  0  0  0  0  0  0  0  0  0
    1.4051    3.3397   -1.4474 H   0  0  0  0  0  0  0  0  0  0  0  0
    1.8922    1.4701   -0.1038 H   0  0  0  0  0  0  0  0  0  0  0  0
    1.7652   -2.7990    0.9517 H   0  0  0  0  0  0  0  0  0  0  0  0
    3.9256   -3.8915    1.0643 H   0  0  0  0  0  0  0  0  0  0  0  0
    6.8720   -2.3947   -1.8801 H   0  0  0  0  0  0  0  0  0  0  0  0
    7.9045   -3.5489   -1.0485 H   0  0  0  0  0  0  0  0  0  0  0  0
    9.0070   -1.3341   -1.0391 H   0  0  0  0  0  0  0  0  0  0  0  0
    8.6027   -0.0453    0.9969 H   0  0  0  0  0  0  0  0  0  0  0  0
    7.0932   -1.0256    1.3285 H   0  0  0  0  0  0  0  0  0  0  0  0
    5.9704   -3.7103    1.9428 H   0  0  0  0  0  0  0  0  0  0  0  0
    7.5599   -3.9502    1.2157 H   0  0  0  0  0  0  0  0  0  0  0  0
    6.3140   -5.6396   -0.4148 H   0  0  0  0  0  0  0  0  0  0  0  0
    5.3306   -7.2772    1.1085 H   0  0  0  0  0  0  0  0  0  0  0  0
    5.3559   -6.0459    2.4613 H   0  0  0  0  0  0  0  0  0  0  0  0
    5.6257   -0.7270   -1.2782 H   0  0  0  0  0  0  0  0  0  0  0  0
    3.4447    0.3097   -1.4402 H   0  0  0  0  0  0  0  0  0  0  0  0
    0.0349   -2.3452   -0.5550 H   0  0  0  0  0  0  0  0  0  0  0  0
   -1.6328   -2.8515   -2.1281 H   0  0  0  0  0  0  0  0  0  0  0  0
   -3.6218   -4.1900   -2.4099 H   0  0  0  0  0  0  0  0  0  0  0  0
  1  2  2  0  0  0  0
  2  3  1  0  0  0  0
  3  4  1  0  0  0  0
  4  5  1  0  0  0  0
  5  6  1  0  0  0  0
  6  7  2  0  0  0  0
  4  8  1  0  0  0  0
  8  9  2  0  0  0  0
  9 10  1  0  0  0  0
 10 11  2  0  0  0  0
 11 12  1  0  0  0  0
 12 13  2  0  0  0  0
 13 14  1  0  0  0  0
 14 15  1  0  0  0  0
 15 16  2  0  0  0  0
 16 17  1  0  0  0  0
 17 18  2  0  0  0  0
 18 19  1  0  0  0  0
 19 20  1  0  0  0  0
 20 21  1  0  0  0  0
 21 22  2  0  0  0  0
 19 23  1  0  0  0  0
 23 24  1  0  0  0  0
 24 25  2  0  0  0  0
 18 26  1  0  0  0  0
 26 27  2  0  0  0  0
 14 28  2  0  0  0  0
 28 29  1  0  0  0  0
 29 30  1  0  0  0  0
 30 31  2  0  0  0  0
 31 32  1  0  0  0  0
 32 33  2  0  0  0  0
 33 34  1  0  0  0  0
 34 35  1  0  0  0  0
 35 36  1  0  0  0  0
 36 37  2  0  0  0  0
 34 38  1  0  0  0  0
 38 39  1  0  0  0  0
 39 40  2  0  0  0  0
 33 41  1  0  0  0  0
 41 42  2  0  0  0  0
 29 43  2  0  0  0  0
 11 44  1  0  0  0  0
 44 45  2  0  0  0  0
 45  8  1  0  0  0  0
 43 12  1  0  0  0  0
 27 15  1  0  0  0  0
 42 30  1  0  0  0  0
  1 46  1  0  0  0  0
  1 47  1  0  0  0  0
  2 48  1  0  0  0  0
  3 49  1  0  0  0  0
  3 50  1  0  0  0  0
  5 51  1  0  0  0  0
  5 52  1  0  0  0  0
  6 53  1  0  0  0  0
  7 54  1  0  0  0  0
  7 55  1  0  0  0  0
  9 56  1  0  0  0  0
 10 57  1  0  0  0  0
 13 58  1  0  0  0  0
 16 59  1  0  0  0  0
 17 60  1  0  0  0  0
 20 61  1  0  0  0  0
 20 62  1  0  0  0  0
 21 63  1  0  0  0  0
 22 64  1  0  0  0  0
 22 65  1  0  0  0  0
 23 66  1  0  0  0  0
 23 67  1  0  0  0  0
 24 68  1  0  0  0  0
 25 69  1  0  0  0  0
 25 70  1  0  0  0  0
 26 71  1  0  0  0  0
 27 72  1  0  0  0  0
 28 73  1  0  0  0  0
 31 74  1  0  0  0  0
 32 75  1  0  0  0  0
 35 76  1  0  0  0  0
 35 77  1  0  0  0  0
 36 78  1  0  0  0  0
 37 79  1  0  0  0  0
 37 80  1  0  0  0  0
 38 81  1  0  0  0  0
 38 82  1  0  0  0  0
 39 83  1  0  0  0  0
 40 84  1  0  0  0  0
 40 85  1  0  0  0  0
 41 86  1  0  0  0  0
 42 87  1  0  0  0  0
 43 88  1  0  0  0  0
 44 89  1  0  0  0  0
 45 90  1  0  0  0  0
M  END
