
  xtb     03022215083D
 energy: -100.141348268208 gnorm: 0.000078585979 xtb: 6.4.1 (afa7bdf)
 62 67  0     0  0            999 V2000
    3.2401    0.4851   -4.4365 C   0  0  0  0  0  0  0  0  0  0  0  0
    3.7461    0.1004   -3.1386 N   0  0  0  0  0  0  0  0  0  0  0  0
    5.1163   -0.1459   -3.0134 C   0  0  0  0  0  0  0  0  0  0  0  0
    5.8512   -0.0330   -3.9826 O   0  0  0  0  0  0  0  0  0  0  0  0
    5.5749   -0.5163   -1.6946 C   0  0  0  0  0  0  0  0  0  0  0  0
    4.7365   -0.6197   -0.6201 C   0  0  0  0  0  0  0  0  0  0  0  0
    5.1423   -0.9976    0.7575 C   0  0  0  0  0  0  0  0  0  0  0  0
    4.2998   -1.3638    1.5552 O   0  0  0  0  0  0  0  0  0  0  0  0
    6.5751   -0.9051    1.1141 C   0  0  0  0  0  0  0  0  0  0  0  0
    7.3652    0.1692    0.7101 C   0  0  0  0  0  0  0  0  0  0  0  0
    8.6916    0.2331    1.0958 C   0  0  0  0  0  0  0  0  0  0  0  0
    9.2413   -0.7716    1.8758 C   0  0  0  0  0  0  0  0  0  0  0  0
    8.4558   -1.8345    2.2928 C   0  0  0  0  0  0  0  0  0  0  0  0
    7.1253   -1.8954    1.9255 C   0  0  0  0  0  0  0  0  0  0  0  0
    3.3627   -0.4018   -0.8361 C   0  0  0  0  0  0  0  0  0  0  0  0
    2.1013   -0.5453    0.3280 S   0  0  0  0  0  0  0  0  0  0  0  0
    0.9171   -0.0681   -0.8669 C   0  0  0  0  0  0  0  0  0  0  0  0
   -0.4767    0.0344   -0.5054 C   0  0  0  0  0  0  0  0  0  0  0  0
   -1.4282    0.5706   -1.3809 C   0  0  0  0  0  0  0  0  0  0  0  0
   -2.7518    0.6695   -1.0191 C   0  0  0  0  0  0  0  0  0  0  0  0
   -3.1842    0.2339    0.2369 C   0  0  0  0  0  0  0  0  0  0  0  0
   -4.5222    0.3343    0.6027 N   0  0  0  0  0  0  0  0  0  0  0  0
   -5.3005    1.4097    0.1521 C   0  0  0  0  0  0  0  0  0  0  0  0
   -4.7551    2.6901    0.0665 C   0  0  0  0  0  0  0  0  0  0  0  0
   -5.5284    3.7465   -0.3744 C   0  0  0  0  0  0  0  0  0  0  0  0
   -6.8531    3.5472   -0.7271 C   0  0  0  0  0  0  0  0  0  0  0  0
   -7.4006    2.2779   -0.6383 C   0  0  0  0  0  0  0  0  0  0  0  0
   -6.6333    1.2134   -0.2063 C   0  0  0  0  0  0  0  0  0  0  0  0
   -5.1042   -0.6374    1.4296 C   0  0  0  0  0  0  0  0  0  0  0  0
   -6.0263   -0.2692    2.4080 C   0  0  0  0  0  0  0  0  0  0  0  0
   -6.6071   -1.2309    3.2121 C   0  0  0  0  0  0  0  0  0  0  0  0
   -6.2743   -2.5669    3.0600 C   0  0  0  0  0  0  0  0  0  0  0  0
   -5.3559   -2.9369    2.0911 C   0  0  0  0  0  0  0  0  0  0  0  0
   -4.7759   -1.9838    1.2766 C   0  0  0  0  0  0  0  0  0  0  0  0
   -2.2394   -0.3031    1.1167 C   0  0  0  0  0  0  0  0  0  0  0  0
   -0.9175   -0.3967    0.7508 C   0  0  0  0  0  0  0  0  0  0  0  0
    1.4891    0.1610   -2.0949 C   0  0  0  0  0  0  0  0  0  0  0  0
    2.8847   -0.0322   -2.0924 C   0  0  0  0  0  0  0  0  0  0  0  0
    4.0923    0.5225   -5.1146 H   0  0  0  0  0  0  0  0  0  0  0  0
    2.7686    1.4676   -4.3854 H   0  0  0  0  0  0  0  0  0  0  0  0
    2.5175   -0.2483   -4.7975 H   0  0  0  0  0  0  0  0  0  0  0  0
    6.6301   -0.7222   -1.6133 H   0  0  0  0  0  0  0  0  0  0  0  0
    6.9339    0.9660    0.1225 H   0  0  0  0  0  0  0  0  0  0  0  0
    9.2993    1.0703    0.7860 H   0  0  0  0  0  0  0  0  0  0  0  0
   10.2802   -0.7211    2.1662 H   0  0  0  0  0  0  0  0  0  0  0  0
    8.8805   -2.6123    2.9096 H   0  0  0  0  0  0  0  0  0  0  0  0
    6.4973   -2.7123    2.2485 H   0  0  0  0  0  0  0  0  0  0  0  0
   -1.1284    0.9160   -2.3577 H   0  0  0  0  0  0  0  0  0  0  0  0
   -3.4701    1.0812   -1.7127 H   0  0  0  0  0  0  0  0  0  0  0  0
   -3.7259    2.8494    0.3532 H   0  0  0  0  0  0  0  0  0  0  0  0
   -5.0954    4.7341   -0.4336 H   0  0  0  0  0  0  0  0  0  0  0  0
   -7.4551    4.3759   -1.0674 H   0  0  0  0  0  0  0  0  0  0  0  0
   -8.4315    2.1129   -0.9147 H   0  0  0  0  0  0  0  0  0  0  0  0
   -7.0595    0.2227   -0.1449 H   0  0  0  0  0  0  0  0  0  0  0  0
   -6.2805    0.7731    2.5332 H   0  0  0  0  0  0  0  0  0  0  0  0
   -7.3187   -0.9332    3.9679 H   0  0  0  0  0  0  0  0  0  0  0  0
   -6.7280   -3.3150    3.6920 H   0  0  0  0  0  0  0  0  0  0  0  0
   -5.0951   -3.9768    1.9617 H   0  0  0  0  0  0  0  0  0  0  0  0
   -4.0685   -2.2750    0.5140 H   0  0  0  0  0  0  0  0  0  0  0  0
   -2.5538   -0.6359    2.0946 H   0  0  0  0  0  0  0  0  0  0  0  0
   -0.2006   -0.8060    1.4471 H   0  0  0  0  0  0  0  0  0  0  0  0
    0.9304    0.4451   -2.9664 H   0  0  0  0  0  0  0  0  0  0  0  0
  1  2  1  0  0  0  0
  2  3  1  0  0  0  0
  3  4  2  0  0  0  0
  3  5  1  0  0  0  0
  5  6  2  0  0  0  0
  6  7  1  0  0  0  0
  7  8  2  0  0  0  0
  7  9  1  0  0  0  0
  9 10  2  0  0  0  0
 10 11  1  0  0  0  0
 11 12  2  0  0  0  0
 12 13  1  0  0  0  0
 13 14  2  0  0  0  0
  6 15  1  0  0  0  0
 15 16  1  0  0  0  0
 16 17  1  0  0  0  0
 17 18  1  0  0  0  0
 18 19  2  0  0  0  0
 19 20  1  0  0  0  0
 20 21  2  0  0  0  0
 21 22  1  0  0  0  0
 22 23  1  0  0  0  0
 23 24  2  0  0  0  0
 24 25  1  0  0  0  0
 25 26  2  0  0  0  0
 26 27  1  0  0  0  0
 27 28  2  0  0  0  0
 22 29  1  0  0  0  0
 29 30  2  0  0  0  0
 30 31  1  0  0  0  0
 31 32  2  0  0  0  0
 32 33  1  0  0  0  0
 33 34  2  0  0  0  0
 21 35  1  0  0  0  0
 35 36  2  0  0  0  0
 17 37  2  0  0  0  0
 37 38  1  0  0  0  0
 38  2  1  0  0  0  0
 14  9  1  0  0  0  0
 38 15  2  0  0  0  0
 36 18  1  0  0  0  0
 28 23  1  0  0  0  0
 34 29  1  0  0  0  0
  1 39  1  0  0  0  0
  1 40  1  0  0  0  0
  1 41  1  0  0  0  0
  5 42  1  0  0  0  0
 10 43  1  0  0  0  0
 11 44  1  0  0  0  0
 12 45  1  0  0  0  0
 13 46  1  0  0  0  0
 14 47  1  0  0  0  0
 19 48  1  0  0  0  0
 20 49  1  0  0  0  0
 24 50  1  0  0  0  0
 25 51  1  0  0  0  0
 26 52  1  0  0  0  0
 27 53  1  0  0  0  0
 28 54  1  0  0  0  0
 30 55  1  0  0  0  0
 31 56  1  0  0  0  0
 32 57  1  0  0  0  0
 33 58  1  0  0  0  0
 34 59  1  0  0  0  0
 35 60  1  0  0  0  0
 36 61  1  0  0  0  0
 37 62  1  0  0  0  0
M  END
