
  xtb     03022215413D
 energy: -141.163426400379 gnorm: 0.000222482986 xtb: 6.4.1 (afa7bdf)
104111  0     0  0            999 V2000
   -2.4716   -1.7185    4.1373 C   0  0  0  0  0  0  0  0  0  0  0  0
   -1.0694   -1.7086    3.5131 C   0  0  0  0  0  0  0  0  0  0  0  0
   -0.2246   -0.5940    4.1448 C   0  0  0  0  0  0  0  0  0  0  0  0
   -0.3978   -3.0474    3.8293 C   0  0  0  0  0  0  0  0  0  0  0  0
   -1.1804   -1.4429    2.0186 C   0  0  0  0  0  0  0  0  0  0  0  0
   -0.7091   -2.3479    1.0666 C   0  0  0  0  0  0  0  0  0  0  0  0
   -0.7744   -2.0968   -0.2917 C   0  0  0  0  0  0  0  0  0  0  0  0
   -1.3002   -0.8878   -0.7070 C   0  0  0  0  0  0  0  0  0  0  0  0
   -1.8577    0.0090    0.2262 C   0  0  0  0  0  0  0  0  0  0  0  0
   -1.7811   -0.2678    1.5804 C   0  0  0  0  0  0  0  0  0  0  0  0
   -2.4380    1.0823   -0.5401 C   0  0  0  0  0  0  0  0  0  0  0  0
   -3.1120    2.2412   -0.1948 C   0  0  0  0  0  0  0  0  0  0  0  0
   -3.5684    3.1034   -1.1855 C   0  0  0  0  0  0  0  0  0  0  0  0
   -4.3229    4.3622   -0.7785 C   0  0  0  0  0  0  0  0  0  0  0  0
   -3.4191    5.2283    0.1103 C   0  0  0  0  0  0  0  0  0  0  0  0
   -5.5824    3.9567    0.0005 C   0  0  0  0  0  0  0  0  0  0  0  0
   -4.7598    5.2102   -1.9761 C   0  0  0  0  0  0  0  0  0  0  0  0
   -3.3253    2.7762   -2.5214 C   0  0  0  0  0  0  0  0  0  0  0  0
   -2.6499    1.6273   -2.8956 C   0  0  0  0  0  0  0  0  0  0  0  0
   -2.2098    0.7803   -1.8982 C   0  0  0  0  0  0  0  0  0  0  0  0
   -1.4777   -0.3958   -1.9925 N   0  0  0  0  0  0  0  0  0  0  0  0
   -0.7994   -0.8444   -3.1116 C   0  0  0  0  0  0  0  0  0  0  0  0
   -1.4347   -0.8980   -4.2511 N   0  0  0  0  0  0  0  0  0  0  0  0
   -0.8192   -1.4880   -5.3006 C   0  0  0  0  0  0  0  0  0  0  0  0
   -1.4646   -1.5595   -6.5465 C   0  0  0  0  0  0  0  0  0  0  0  0
   -0.8823   -2.2566   -7.5718 C   0  0  0  0  0  0  0  0  0  0  0  0
    0.3524   -2.8987   -7.3941 C   0  0  0  0  0  0  0  0  0  0  0  0
    1.0124   -2.8310   -6.1958 C   0  0  0  0  0  0  0  0  0  0  0  0
    0.4480   -2.1077   -5.1317 C   0  0  0  0  0  0  0  0  0  0  0  0
    1.1405   -1.9410   -3.9825 N   0  0  0  0  0  0  0  0  0  0  0  0
    0.5792   -1.2690   -3.0139 C   0  0  0  0  0  0  0  0  0  0  0  0
    1.3362   -0.9487   -1.9011 N   0  0  0  0  0  0  0  0  0  0  0  0
    1.2305    0.2344   -1.1834 C   0  0  0  0  0  0  0  0  0  0  0  0
    0.7056    1.4540   -1.5680 C   0  0  0  0  0  0  0  0  0  0  0  0
    0.7225    2.4899   -0.6522 C   0  0  0  0  0  0  0  0  0  0  0  0
    1.2748    2.3534    0.6221 C   0  0  0  0  0  0  0  0  0  0  0  0
    1.2570    3.4866    1.6380 C   0  0  0  0  0  0  0  0  0  0  0  0
    0.5694    4.7474    1.1081 C   0  0  0  0  0  0  0  0  0  0  0  0
    2.6977    3.8527    2.0205 C   0  0  0  0  0  0  0  0  0  0  0  0
    0.4902    3.0164    2.8813 C   0  0  0  0  0  0  0  0  0  0  0  0
    1.8722    1.1449    0.9632 C   0  0  0  0  0  0  0  0  0  0  0  0
    1.8668    0.0908    0.0658 C   0  0  0  0  0  0  0  0  0  0  0  0
    2.4200   -1.2394    0.0881 C   0  0  0  0  0  0  0  0  0  0  0  0
    3.1397   -1.9545    1.0301 C   0  0  0  0  0  0  0  0  0  0  0  0
    3.5501   -3.2540    0.7542 C   0  0  0  0  0  0  0  0  0  0  0  0
    4.3559   -4.0116    1.8011 C   0  0  0  0  0  0  0  0  0  0  0  0
    4.7344   -5.4265    1.3547 C   0  0  0  0  0  0  0  0  0  0  0  0
    5.6531   -3.2404    2.0841 C   0  0  0  0  0  0  0  0  0  0  0  0
    3.5290   -4.1270    3.0895 C   0  0  0  0  0  0  0  0  0  0  0  0
    3.2146   -3.8137   -0.4807 C   0  0  0  0  0  0  0  0  0  0  0  0
    2.4918   -3.1243   -1.4390 C   0  0  0  0  0  0  0  0  0  0  0  0
    2.0984   -1.8331   -1.1496 C   0  0  0  0  0  0  0  0  0  0  0  0
   -2.9706   -0.7620    4.0102 H   0  0  0  0  0  0  0  0  0  0  0  0
   -3.0847   -2.4869    3.6709 H   0  0  0  0  0  0  0  0  0  0  0  0
   -2.4061   -1.9284    5.2029 H   0  0  0  0  0  0  0  0  0  0  0  0
    0.7543   -0.5601    3.6710 H   0  0  0  0  0  0  0  0  0  0  0  0
   -0.0909   -0.7778    5.2091 H   0  0  0  0  0  0  0  0  0  0  0  0
   -0.6975    0.3758    4.0225 H   0  0  0  0  0  0  0  0  0  0  0  0
    0.6090   -3.0829    3.4208 H   0  0  0  0  0  0  0  0  0  0  0  0
   -0.9748   -3.8794    3.4324 H   0  0  0  0  0  0  0  0  0  0  0  0
   -0.3289   -3.1723    4.9083 H   0  0  0  0  0  0  0  0  0  0  0  0
   -0.2757   -3.2842    1.3748 H   0  0  0  0  0  0  0  0  0  0  0  0
   -0.4236   -2.8352   -0.9975 H   0  0  0  0  0  0  0  0  0  0  0  0
   -2.1991    0.4362    2.2834 H   0  0  0  0  0  0  0  0  0  0  0  0
   -3.2761    2.4585    0.8497 H   0  0  0  0  0  0  0  0  0  0  0  0
   -3.9420    6.1351    0.4072 H   0  0  0  0  0  0  0  0  0  0  0  0
   -3.1230    4.6983    1.0114 H   0  0  0  0  0  0  0  0  0  0  0  0
   -2.5201    5.5128   -0.4329 H   0  0  0  0  0  0  0  0  0  0  0  0
   -6.1485    4.8409    0.2864 H   0  0  0  0  0  0  0  0  0  0  0  0
   -5.3308    3.4071    0.9032 H   0  0  0  0  0  0  0  0  0  0  0  0
   -6.2173    3.3243   -0.6165 H   0  0  0  0  0  0  0  0  0  0  0  0
   -3.9015    5.5464   -2.5533 H   0  0  0  0  0  0  0  0  0  0  0  0
   -5.2902    6.0915   -1.6203 H   0  0  0  0  0  0  0  0  0  0  0  0
   -5.4323    4.6544   -2.6254 H   0  0  0  0  0  0  0  0  0  0  0  0
   -3.6704    3.4281   -3.3065 H   0  0  0  0  0  0  0  0  0  0  0  0
   -2.4784    1.3929   -3.9347 H   0  0  0  0  0  0  0  0  0  0  0  0
   -2.4207   -1.0724   -6.6582 H   0  0  0  0  0  0  0  0  0  0  0  0
   -1.3771   -2.3214   -8.5296 H   0  0  0  0  0  0  0  0  0  0  0  0
    0.7849   -3.4468   -8.2181 H   0  0  0  0  0  0  0  0  0  0  0  0
    1.9700   -3.3043   -6.0441 H   0  0  0  0  0  0  0  0  0  0  0  0
    0.2935    1.6084   -2.5544 H   0  0  0  0  0  0  0  0  0  0  0  0
    0.2889    3.4266   -0.9590 H   0  0  0  0  0  0  0  0  0  0  0  0
    1.0951    5.1480    0.2444 H   0  0  0  0  0  0  0  0  0  0  0  0
    0.5675    5.5120    1.8828 H   0  0  0  0  0  0  0  0  0  0  0  0
   -0.4625    4.5413    0.8350 H   0  0  0  0  0  0  0  0  0  0  0  0
    2.6990    4.6756    2.7325 H   0  0  0  0  0  0  0  0  0  0  0  0
    3.2543    4.1591    1.1373 H   0  0  0  0  0  0  0  0  0  0  0  0
    3.2150    3.0115    2.4732 H   0  0  0  0  0  0  0  0  0  0  0  0
    0.4236    3.8209    3.6111 H   0  0  0  0  0  0  0  0  0  0  0  0
    0.9820    2.1696    3.3507 H   0  0  0  0  0  0  0  0  0  0  0  0
   -0.5172    2.7155    2.6011 H   0  0  0  0  0  0  0  0  0  0  0  0
    2.3510    1.0146    1.9214 H   0  0  0  0  0  0  0  0  0  0  0  0
    3.3753   -1.4859    1.9735 H   0  0  0  0  0  0  0  0  0  0  0  0
    3.8488   -6.0279    1.1629 H   0  0  0  0  0  0  0  0  0  0  0  0
    5.3055   -5.9133    2.1431 H   0  0  0  0  0  0  0  0  0  0  0  0
    5.3519   -5.4031    0.4599 H   0  0  0  0  0  0  0  0  0  0  0  0
    5.4474   -2.2465    2.4713 H   0  0  0  0  0  0  0  0  0  0  0  0
    6.2553   -3.7738    2.8167 H   0  0  0  0  0  0  0  0  0  0  0  0
    6.2337   -3.1356    1.1699 H   0  0  0  0  0  0  0  0  0  0  0  0
    3.2783   -3.1482    3.4893 H   0  0  0  0  0  0  0  0  0  0  0  0
    4.0894   -4.6694    3.8483 H   0  0  0  0  0  0  0  0  0  0  0  0
    2.6042   -4.6665    2.8948 H   0  0  0  0  0  0  0  0  0  0  0  0
    3.5225   -4.8185   -0.7175 H   0  0  0  0  0  0  0  0  0  0  0  0
    2.2489   -3.5760   -2.3883 H   0  0  0  0  0  0  0  0  0  0  0  0
  1  2  1  0  0  0  0
  2  3  1  0  0  0  0
  2  4  1  0  0  0  0
  2  5  1  0  0  0  0
  5  6  2  0  0  0  0
  6  7  1  0  0  0  0
  7  8  2  0  0  0  0
  8  9  1  0  0  0  0
  9 10  2  0  0  0  0
  9 11  1  0  0  0  0
 11 12  2  0  0  0  0
 12 13  1  0  0  0  0
 13 14  1  0  0  0  0
 14 15  1  0  0  0  0
 14 16  1  0  0  0  0
 14 17  1  0  0  0  0
 13 18  2  0  0  0  0
 18 19  1  0  0  0  0
 19 20  2  0  0  0  0
 20 21  1  0  0  0  0
 21 22  1  0  0  0  0
 22 23  2  0  0  0  0
 23 24  1  0  0  0  0
 24 25  2  0  0  0  0
 25 26  1  0  0  0  0
 26 27  2  0  0  0  0
 27 28  1  0  0  0  0
 28 29  2  0  0  0  0
 29 30  1  0  0  0  0
 30 31  2  0  0  0  0
 31 32  1  0  0  0  0
 32 33  1  0  0  0  0
 33 34  2  0  0  0  0
 34 35  1  0  0  0  0
 35 36  2  0  0  0  0
 36 37  1  0  0  0  0
 37 38  1  0  0  0  0
 37 39  1  0  0  0  0
 37 40  1  0  0  0  0
 36 41  1  0  0  0  0
 41 42  2  0  0  0  0
 42 43  1  0  0  0  0
 43 44  2  0  0  0  0
 44 45  1  0  0  0  0
 45 46  1  0  0  0  0
 46 47  1  0  0  0  0
 46 48  1  0  0  0  0
 46 49  1  0  0  0  0
 45 50  2  0  0  0  0
 50 51  1  0  0  0  0
 51 52  2  0  0  0  0
 10  5  1  0  0  0  0
 20 11  1  0  0  0  0
 31 22  1  0  0  0  0
 52 32  1  0  0  0  0
 21  8  1  0  0  0  0
 29 24  1  0  0  0  0
 42 33  1  0  0  0  0
 52 43  1  0  0  0  0
  1 53  1  0  0  0  0
  1 54  1  0  0  0  0
  1 55  1  0  0  0  0
  3 56  1  0  0  0  0
  3 57  1  0  0  0  0
  3 58  1  0  0  0  0
  4 59  1  0  0  0  0
  4 60  1  0  0  0  0
  4 61  1  0  0  0  0
  6 62  1  0  0  0  0
  7 63  1  0  0  0  0
 10 64  1  0  0  0  0
 12 65  1  0  0  0  0
 15 66  1  0  0  0  0
 15 67  1  0  0  0  0
 15 68  1  0  0  0  0
 16 69  1  0  0  0  0
 16 70  1  0  0  0  0
 16 71  1  0  0  0  0
 17 72  1  0  0  0  0
 17 73  1  0  0  0  0
 17 74  1  0  0  0  0
 18 75  1  0  0  0  0
 19 76  1  0  0  0  0
 25 77  1  0  0  0  0
 26 78  1  0  0  0  0
 27 79  1  0  0  0  0
 28 80  1  0  0  0  0
 34 81  1  0  0  0  0
 35 82  1  0  0  0  0
 38 83  1  0  0  0  0
 38 84  1  0  0  0  0
 38 85  1  0  0  0  0
 39 86  1  0  0  0  0
 39 87  1  0  0  0  0
 39 88  1  0  0  0  0
 40 89  1  0  0  0  0
 40 90  1  0  0  0  0
 40 91  1  0  0  0  0
 41 92  1  0  0  0  0
 44 93  1  0  0  0  0
 47 94  1  0  0  0  0
 47 95  1  0  0  0  0
 47 96  1  0  0  0  0
 48 97  1  0  0  0  0
 48 98  1  0  0  0  0
 48 99  1  0  0  0  0
 49100  1  0  0  0  0
 49101  1  0  0  0  0
 49102  1  0  0  0  0
 50103  1  0  0  0  0
 51104  1  0  0  0  0
M  END
