
  xtb     03022213243D
 energy: -46.332949855491 gnorm: 0.000148845841 xtb: 6.4.1 (afa7bdf)
 32 33  0     0  0            999 V2000
   -4.9446   -0.6725    0.9398 C   0  0  0  0  0  0  0  0  0  0  0  0
   -4.0993    0.2830    0.2690 N   0  0  0  0  0  0  0  0  0  0  0  0
   -4.7083    1.4058   -0.3992 C   0  0  0  0  0  0  0  0  0  0  0  0
   -2.7412    0.1280    0.2689 C   0  0  0  0  0  0  0  0  0  0  0  0
   -2.1296   -0.9887    0.8623 C   0  0  0  0  0  0  0  0  0  0  0  0
   -0.7629   -1.1349    0.8563 C   0  0  0  0  0  0  0  0  0  0  0  0
    0.0830   -0.1901    0.2640 C   0  0  0  0  0  0  0  0  0  0  0  0
    1.5086   -0.4020    0.2902 C   0  0  0  0  0  0  0  0  0  0  0  0
    2.4485    0.3991   -0.2410 C   0  0  0  0  0  0  0  0  0  0  0  0
    3.8745    0.1716   -0.2055 C   0  0  0  0  0  0  0  0  0  0  0  0
    4.4979   -0.9334    0.4070 C   0  0  0  0  0  0  0  0  0  0  0  0
    5.8700   -1.0030    0.3528 C   0  0  0  0  0  0  0  0  0  0  0  0
    6.5353    0.0318   -0.3075 C   0  0  0  0  0  0  0  0  0  0  0  0
    5.8947    1.0424   -0.8621 N   0  0  0  0  0  0  0  0  0  0  0  0
    4.6039    1.1130   -0.8141 N   0  0  0  0  0  0  0  0  0  0  0  0
   -0.5285    0.9219   -0.3260 C   0  0  0  0  0  0  0  0  0  0  0  0
   -1.8934    1.0793   -0.3250 C   0  0  0  0  0  0  0  0  0  0  0  0
   -5.9780   -0.3376    0.8969 H   0  0  0  0  0  0  0  0  0  0  0  0
   -4.6650   -0.7729    1.9927 H   0  0  0  0  0  0  0  0  0  0  0  0
   -4.8856   -1.6590    0.4675 H   0  0  0  0  0  0  0  0  0  0  0  0
   -4.4122    1.4437   -1.4515 H   0  0  0  0  0  0  0  0  0  0  0  0
   -4.4304    2.3526    0.0760 H   0  0  0  0  0  0  0  0  0  0  0  0
   -5.7906    1.3104   -0.3577 H   0  0  0  0  0  0  0  0  0  0  0  0
   -2.7265   -1.7545    1.3299 H   0  0  0  0  0  0  0  0  0  0  0  0
   -0.3302   -2.0097    1.3226 H   0  0  0  0  0  0  0  0  0  0  0  0
    1.8122   -1.3102    0.7973 H   0  0  0  0  0  0  0  0  0  0  0  0
    2.1783    1.3094   -0.7553 H   0  0  0  0  0  0  0  0  0  0  0  0
    3.9189   -1.6981    0.9019 H   0  0  0  0  0  0  0  0  0  0  0  0
    6.4164   -1.8206    0.8003 H   0  0  0  0  0  0  0  0  0  0  0  0
    7.6121    0.0546   -0.3961 H   0  0  0  0  0  0  0  0  0  0  0  0
    0.0789    1.6812   -0.7934 H   0  0  0  0  0  0  0  0  0  0  0  0
   -2.3064    1.9595   -0.7897 H   0  0  0  0  0  0  0  0  0  0  0  0
  1  2  1  0  0  0  0
  2  3  1  0  0  0  0
  2  4  1  0  0  0  0
  4  5  2  0  0  0  0
  5  6  1  0  0  0  0
  6  7  2  0  0  0  0
  7  8  1  0  0  0  0
  8  9  2  0  0  0  0
  9 10  1  0  0  0  0
 10 11  2  0  0  0  0
 11 12  1  0  0  0  0
 12 13  2  0  0  0  0
 13 14  1  0  0  0  0
 14 15  2  0  0  0  0
  7 16  1  0  0  0  0
 16 17  2  0  0  0  0
 17  4  1  0  0  0  0
 15 10  1  0  0  0  0
  1 18  1  0  0  0  0
  1 19  1  0  0  0  0
  1 20  1  0  0  0  0
  3 21  1  0  0  0  0
  3 22  1  0  0  0  0
  3 23  1  0  0  0  0
  5 24  1  0  0  0  0
  6 25  1  0  0  0  0
  8 26  1  0  0  0  0
  9 27  1  0  0  0  0
 11 28  1  0  0  0  0
 12 29  1  0  0  0  0
 13 30  1  0  0  0  0
 16 31  1  0  0  0  0
 17 32  1  0  0  0  0
M  END
