
  xtb     03022212213D
 energy: -73.667877128210 gnorm: 0.000068070089 xtb: 6.4.1 (afa7bdf)
 48 52  0     0  0            999 V2000
    7.8853    1.2198   -0.3805 C   0  0  0  0  0  0  0  0  0  0  0  0
    7.1014    0.0100   -0.3870 N   0  0  0  0  0  0  0  0  0  0  0  0
    7.7798   -1.2598   -0.4575 C   0  0  0  0  0  0  0  0  0  0  0  0
    5.7373    0.0674   -0.3248 C   0  0  0  0  0  0  0  0  0  0  0  0
    5.0538    1.2953   -0.3284 C   0  0  0  0  0  0  0  0  0  0  0  0
    3.6823    1.3436   -0.2661 C   0  0  0  0  0  0  0  0  0  0  0  0
    2.9007    0.1835   -0.1968 C   0  0  0  0  0  0  0  0  0  0  0  0
    1.4700    0.3025   -0.1345 C   0  0  0  0  0  0  0  0  0  0  0  0
    0.5682   -0.6969   -0.0672 C   0  0  0  0  0  0  0  0  0  0  0  0
   -0.8331   -0.4366   -0.0104 C   0  0  0  0  0  0  0  0  0  0  0  0
   -1.4170    0.7326   -0.0151 N   0  0  0  0  0  0  0  0  0  0  0  0
   -2.7514    0.4644    0.0525 C   0  0  0  0  0  0  0  0  0  0  0  0
   -3.8657    1.3492    0.0793 C   0  0  0  0  0  0  0  0  0  0  0  0
   -3.6953    2.7364    0.0344 C   0  0  0  0  0  0  0  0  0  0  0  0
   -4.7853    3.5702    0.0613 C   0  0  0  0  0  0  0  0  0  0  0  0
   -6.0645    3.0220    0.1338 C   0  0  0  0  0  0  0  0  0  0  0  0
   -6.2443    1.6593    0.1785 C   0  0  0  0  0  0  0  0  0  0  0  0
   -5.1571    0.7720    0.1532 C   0  0  0  0  0  0  0  0  0  0  0  0
   -5.3239   -0.6703    0.1995 C   0  0  0  0  0  0  0  0  0  0  0  0
   -6.5819   -1.2857    0.2731 C   0  0  0  0  0  0  0  0  0  0  0  0
   -6.7177   -2.6539    0.3159 C   0  0  0  0  0  0  0  0  0  0  0  0
   -5.5972   -3.4824    0.2870 C   0  0  0  0  0  0  0  0  0  0  0  0
   -4.3465   -2.9235    0.2153 C   0  0  0  0  0  0  0  0  0  0  0  0
   -4.1950   -1.5312    0.1712 C   0  0  0  0  0  0  0  0  0  0  0  0
   -2.9270   -0.9103    0.0971 C   0  0  0  0  0  0  0  0  0  0  0  0
   -1.7025   -1.4864    0.0570 O   0  0  0  0  0  0  0  0  0  0  0  0
    3.5838   -1.0386   -0.1928 C   0  0  0  0  0  0  0  0  0  0  0  0
    4.9552   -1.0989   -0.2544 C   0  0  0  0  0  0  0  0  0  0  0  0
    7.6511    1.8336    0.4940 H   0  0  0  0  0  0  0  0  0  0  0  0
    7.7088    1.8157   -1.2824 H   0  0  0  0  0  0  0  0  0  0  0  0
    8.9424    0.9686   -0.3414 H   0  0  0  0  0  0  0  0  0  0  0  0
    7.4160   -1.8516   -1.3023 H   0  0  0  0  0  0  0  0  0  0  0  0
    7.6404   -1.8400    0.4610 H   0  0  0  0  0  0  0  0  0  0  0  0
    8.8456   -1.0957   -0.5966 H   0  0  0  0  0  0  0  0  0  0  0  0
    5.5993    2.2227   -0.3863 H   0  0  0  0  0  0  0  0  0  0  0  0
    3.1894    2.3055   -0.2728 H   0  0  0  0  0  0  0  0  0  0  0  0
    1.0755    1.3102   -0.1433 H   0  0  0  0  0  0  0  0  0  0  0  0
    0.8453   -1.7399   -0.0523 H   0  0  0  0  0  0  0  0  0  0  0  0
   -2.6882    3.1196   -0.0215 H   0  0  0  0  0  0  0  0  0  0  0  0
   -4.6581    4.6421    0.0267 H   0  0  0  0  0  0  0  0  0  0  0  0
   -6.9254    3.6747    0.1552 H   0  0  0  0  0  0  0  0  0  0  0  0
   -7.2521    1.2793    0.2343 H   0  0  0  0  0  0  0  0  0  0  0  0
   -7.4761   -0.6836    0.2978 H   0  0  0  0  0  0  0  0  0  0  0  0
   -7.7038   -3.0914    0.3724 H   0  0  0  0  0  0  0  0  0  0  0  0
   -5.7169   -4.5551    0.3211 H   0  0  0  0  0  0  0  0  0  0  0  0
   -3.4592   -3.5385    0.1914 H   0  0  0  0  0  0  0  0  0  0  0  0
    3.0277   -1.9618   -0.1381 H   0  0  0  0  0  0  0  0  0  0  0  0
    5.4265   -2.0681   -0.2417 H   0  0  0  0  0  0  0  0  0  0  0  0
  1  2  1  0  0  0  0
  2  3  1  0  0  0  0
  2  4  1  0  0  0  0
  4  5  2  0  0  0  0
  5  6  1  0  0  0  0
  6  7  2  0  0  0  0
  7  8  1  0  0  0  0
  8  9  2  0  0  0  0
  9 10  1  0  0  0  0
 10 11  2  0  0  0  0
 11 12  1  0  0  0  0
 12 13  2  0  0  0  0
 13 14  1  0  0  0  0
 14 15  2  0  0  0  0
 15 16  1  0  0  0  0
 16 17  2  0  0  0  0
 17 18  1  0  0  0  0
 18 19  2  0  0  0  0
 19 20  1  0  0  0  0
 20 21  2  0  0  0  0
 21 22  1  0  0  0  0
 22 23  2  0  0  0  0
 23 24  1  0  0  0  0
 24 25  2  0  0  0  0
 25 26  1  0  0  0  0
  7 27  1  0  0  0  0
 27 28  2  0  0  0  0
 28  4  1  0  0  0  0
 26 10  1  0  0  0  0
 25 12  1  0  0  0  0
 18 13  1  0  0  0  0
 24 19  1  0  0  0  0
  1 29  1  0  0  0  0
  1 30  1  0  0  0  0
  1 31  1  0  0  0  0
  3 32  1  0  0  0  0
  3 33  1  0  0  0  0
  3 34  1  0  0  0  0
  5 35  1  0  0  0  0
  6 36  1  0  0  0  0
  8 37  1  0  0  0  0
  9 38  1  0  0  0  0
 14 39  1  0  0  0  0
 15 40  1  0  0  0  0
 16 41  1  0  0  0  0
 17 42  1  0  0  0  0
 20 43  1  0  0  0  0
 21 44  1  0  0  0  0
 22 45  1  0  0  0  0
 23 46  1  0  0  0  0
 27 47  1  0  0  0  0
 28 48  1  0  0  0  0
M  END
