
  xtb     03022215323D
 energy: -80.356375465359 gnorm: 0.000126227517 xtb: 6.4.1 (afa7bdf)
 58 62  0     0  0            999 V2000
   -5.5629   -1.2134   -1.8484 C   0  0  0  0  0  0  0  0  0  0  0  0
   -4.6118   -0.9209   -0.6804 C   0  0  0  0  0  0  0  0  0  0  0  0
   -4.8174   -1.9962    0.3999 C   0  0  0  0  0  0  0  0  0  0  0  0
   -3.1708   -0.9176   -1.1934 C   0  0  0  0  0  0  0  0  0  0  0  0
   -2.1928   -0.2420   -0.2368 C   0  0  0  0  0  0  0  0  0  0  0  0
   -0.8526   -0.3841   -0.7700 N   0  0  0  0  0  0  0  0  0  0  0  0
    0.2250    0.0398    0.1024 C   0  0  0  0  0  0  0  0  0  0  0  0
    1.5669   -0.4451   -0.3914 C   0  0  0  0  0  0  0  0  0  0  0  0
    1.6230   -1.4066   -1.3903 C   0  0  0  0  0  0  0  0  0  0  0  0
    2.8268   -1.8675   -1.8834 C   0  0  0  0  0  0  0  0  0  0  0  0
    4.0337   -1.3774   -1.3872 C   0  0  0  0  0  0  0  0  0  0  0  0
    5.2928   -1.8243   -1.8844 C   0  0  0  0  0  0  0  0  0  0  0  0
    6.4549   -1.3448   -1.3866 C   0  0  0  0  0  0  0  0  0  0  0  0
    6.4621   -0.3761   -0.3404 C   0  0  0  0  0  0  0  0  0  0  0  0
    7.6493    0.1298    0.1906 C   0  0  0  0  0  0  0  0  0  0  0  0
    7.6280    1.0655    1.2086 C   0  0  0  0  0  0  0  0  0  0  0  0
    6.4262    1.5169    1.7210 C   0  0  0  0  0  0  0  0  0  0  0  0
    5.2149    1.0395    1.2183 C   0  0  0  0  0  0  0  0  0  0  0  0
    3.9572    1.4764    1.7232 C   0  0  0  0  0  0  0  0  0  0  0  0
    2.7923    1.0075    1.2195 C   0  0  0  0  0  0  0  0  0  0  0  0
    2.7618    0.0534    0.1568 C   0  0  0  0  0  0  0  0  0  0  0  0
    4.0036   -0.4111   -0.3512 C   0  0  0  0  0  0  0  0  0  0  0  0
    5.2236    0.0833    0.1740 C   0  0  0  0  0  0  0  0  0  0  0  0
   -2.6605    1.2069   -0.0586 C   0  0  0  0  0  0  0  0  0  0  0  0
   -4.0771    1.3121    0.5108 C   0  0  0  0  0  0  0  0  0  0  0  0
   -4.6218    2.7238    0.2545 C   0  0  0  0  0  0  0  0  0  0  0  0
   -4.0871    1.0508    2.0269 C   0  0  0  0  0  0  0  0  0  0  0  0
   -4.9971    0.3777   -0.1330 N   0  0  0  0  0  0  0  0  0  0  0  0
   -6.2429    0.5451    0.1140 O   0  0  0  0  0  1  0  0  0  0  0  0
   -5.4684   -0.4463   -2.6138 H   0  0  0  0  0  0  0  0  0  0  0  0
   -5.3312   -2.1802   -2.2861 H   0  0  0  0  0  0  0  0  0  0  0  0
   -6.5890   -1.2142   -1.4920 H   0  0  0  0  0  0  0  0  0  0  0  0
   -4.7403   -2.9863   -0.0414 H   0  0  0  0  0  0  0  0  0  0  0  0
   -4.0793   -1.9117    1.1924 H   0  0  0  0  0  0  0  0  0  0  0  0
   -5.8088   -1.8787    0.8313 H   0  0  0  0  0  0  0  0  0  0  0  0
   -2.8571   -1.9471   -1.3688 H   0  0  0  0  0  0  0  0  0  0  0  0
   -3.1293   -0.3912   -2.1504 H   0  0  0  0  0  0  0  0  0  0  0  0
   -2.1949   -0.7586    0.7291 H   0  0  0  0  0  0  0  0  0  0  0  0
   -0.7788    0.0959   -1.6622 H   0  0  0  0  0  0  0  0  0  0  0  0
    0.0372   -0.3936    1.0927 H   0  0  0  0  0  0  0  0  0  0  0  0
    0.2610    1.1360    0.2207 H   0  0  0  0  0  0  0  0  0  0  0  0
    0.6952   -1.7988   -1.7765 H   0  0  0  0  0  0  0  0  0  0  0  0
    2.8403   -2.6159   -2.6629 H   0  0  0  0  0  0  0  0  0  0  0  0
    5.2919   -2.5611   -2.6755 H   0  0  0  0  0  0  0  0  0  0  0  0
    7.4057   -1.6874   -1.7700 H   0  0  0  0  0  0  0  0  0  0  0  0
    8.5928   -0.2201   -0.2039 H   0  0  0  0  0  0  0  0  0  0  0  0
    8.5577    1.4453    1.6072 H   0  0  0  0  0  0  0  0  0  0  0  0
    6.4149    2.2463    2.5184 H   0  0  0  0  0  0  0  0  0  0  0  0
    3.9553    2.1972    2.5291 H   0  0  0  0  0  0  0  0  0  0  0  0
    1.8593    1.3543    1.6365 H   0  0  0  0  0  0  0  0  0  0  0  0
   -1.9881    1.7471    0.6107 H   0  0  0  0  0  0  0  0  0  0  0  0
   -2.6247    1.6981   -1.0355 H   0  0  0  0  0  0  0  0  0  0  0  0
   -3.9859    3.4640    0.7324 H   0  0  0  0  0  0  0  0  0  0  0  0
   -5.6296    2.8034    0.6518 H   0  0  0  0  0  0  0  0  0  0  0  0
   -4.6594    2.9258   -0.8138 H   0  0  0  0  0  0  0  0  0  0  0  0
   -5.1180    1.0078    2.3705 H   0  0  0  0  0  0  0  0  0  0  0  0
   -3.5988    0.1119    2.2730 H   0  0  0  0  0  0  0  0  0  0  0  0
   -3.5761    1.8561    2.5486 H   0  0  0  0  0  0  0  0  0  0  0  0
  1  2  1  0  0  0  0
  2  3  1  0  0  0  0
  2  4  1  0  0  0  0
  4  5  1  0  0  0  0
  5  6  1  0  0  0  0
  6  7  1  0  0  0  0
  7  8  1  0  0  0  0
  8  9  2  0  0  0  0
  9 10  1  0  0  0  0
 10 11  2  0  0  0  0
 11 12  1  0  0  0  0
 12 13  2  0  0  0  0
 13 14  1  0  0  0  0
 14 15  2  0  0  0  0
 15 16  1  0  0  0  0
 16 17  2  0  0  0  0
 17 18  1  0  0  0  0
 18 19  2  0  0  0  0
 19 20  1  0  0  0  0
 20 21  2  0  0  0  0
 21 22  1  0  0  0  0
 22 23  2  0  0  0  0
  5 24  1  0  0  0  0
 24 25  1  0  0  0  0
 25 26  1  0  0  0  0
 25 27  1  0  0  0  0
 25 28  1  0  0  0  0
 28 29  1  0  0  0  0
 28  2  1  0  0  0  0
 21  8  1  0  0  0  0
 22 11  1  0  0  0  0
 23 14  1  0  0  0  0
 23 18  1  0  0  0  0
  1 30  1  0  0  0  0
  1 31  1  0  0  0  0
  1 32  1  0  0  0  0
  3 33  1  0  0  0  0
  3 34  1  0  0  0  0
  3 35  1  0  0  0  0
  4 36  1  0  0  0  0
  4 37  1  0  0  0  0
  5 38  1  0  0  0  0
  6 39  1  0  0  0  0
  7 40  1  0  0  0  0
  7 41  1  0  0  0  0
  9 42  1  0  0  0  0
 10 43  1  0  0  0  0
 12 44  1  0  0  0  0
 13 45  1  0  0  0  0
 15 46  1  0  0  0  0
 16 47  1  0  0  0  0
 17 48  1  0  0  0  0
 19 49  1  0  0  0  0
 20 50  1  0  0  0  0
 24 51  1  0  0  0  0
 24 52  1  0  0  0  0
 26 53  1  0  0  0  0
 26 54  1  0  0  0  0
 26 55  1  0  0  0  0
 27 56  1  0  0  0  0
 27 57  1  0  0  0  0
 27 58  1  0  0  0  0
M  END
