
  xtb     03022214083D
 energy: -88.440667111981 gnorm: 0.000201933462 xtb: 6.4.1 (afa7bdf)
 62 66  0     0  0            999 V2000
    2.1231   -2.9073   -0.5123 C   0  0  0  0  0  0  0  0  0  0  0  0
    0.7115   -3.4679   -0.3811 C   0  0  0  0  0  0  0  0  0  0  0  0
   -0.2912   -2.4452    0.1546 C   0  0  0  0  0  0  0  0  0  0  0  0
   -0.0966   -2.1453    1.6410 C   0  0  0  0  0  0  0  0  0  0  0  0
   -1.0862   -1.1065    2.1803 C   0  0  0  0  0  0  0  0  0  0  0  0
   -0.5885    0.3416    2.0642 C   0  0  0  0  0  0  0  0  0  0  0  0
   -0.3341    0.7517    0.7114 N   0  0  0  0  0  0  0  0  0  0  0  0
   -1.3059    1.0486   -0.2153 C   0  0  0  0  0  0  0  0  0  0  0  0
   -2.6775    1.1174   -0.0529 C   0  0  0  0  0  0  0  0  0  0  0  0
   -3.4690    1.4454   -1.1542 C   0  0  0  0  0  0  0  0  0  0  0  0
   -4.9109    1.5280   -1.0824 C   0  0  0  0  0  0  0  0  0  0  0  0
   -5.6801    1.2598   -0.0118 C   0  0  0  0  0  0  0  0  0  0  0  0
   -7.1082    1.3460    0.0092 C   0  0  0  0  0  0  0  0  0  0  0  0
   -7.9984    1.6991   -0.9748 C   0  0  0  0  0  0  0  0  0  0  0  0
   -9.3397    1.6559   -0.5547 C   0  0  0  0  0  0  0  0  0  0  0  0
   -9.4754    1.2723    0.7427 C   0  0  0  0  0  0  0  0  0  0  0  0
   -7.9592    0.9544    1.4806 S   0  0  0  0  0  0  0  0  0  0  0  0
   -2.8524    1.7035   -2.3948 C   0  0  0  0  0  0  0  0  0  0  0  0
   -1.4893    1.6376   -2.5625 C   0  0  0  0  0  0  0  0  0  0  0  0
   -0.6962    1.3053   -1.4694 C   0  0  0  0  0  0  0  0  0  0  0  0
    0.7097    1.1377   -1.2764 C   0  0  0  0  0  0  0  0  0  0  0  0
    1.8151    1.2322   -2.1160 C   0  0  0  0  0  0  0  0  0  0  0  0
    3.0672    0.9829   -1.6058 C   0  0  0  0  0  0  0  0  0  0  0  0
    3.2611    0.6447   -0.2529 C   0  0  0  0  0  0  0  0  0  0  0  0
    4.5662    0.3692    0.3046 C   0  0  0  0  0  0  0  0  0  0  0  0
    5.7346    0.3285   -0.3607 C   0  0  0  0  0  0  0  0  0  0  0  0
    7.0036    0.0450    0.2365 C   0  0  0  0  0  0  0  0  0  0  0  0
    7.3391   -0.2302    1.5394 C   0  0  0  0  0  0  0  0  0  0  0  0
    8.7145   -0.4552    1.7255 C   0  0  0  0  0  0  0  0  0  0  0  0
    9.4272   -0.3529    0.5718 C   0  0  0  0  0  0  0  0  0  0  0  0
    8.4269    0.0217   -0.7709 S   0  0  0  0  0  0  0  0  0  0  0  0
    2.1557    0.5596    0.5961 C   0  0  0  0  0  0  0  0  0  0  0  0
    0.8909    0.7925    0.0873 C   0  0  0  0  0  0  0  0  0  0  0  0
    2.7825   -3.6458   -0.9626 H   0  0  0  0  0  0  0  0  0  0  0  0
    2.1232   -2.0187   -1.1398 H   0  0  0  0  0  0  0  0  0  0  0  0
    2.5340   -2.6380    0.4571 H   0  0  0  0  0  0  0  0  0  0  0  0
    0.7239   -4.3428    0.2737 H   0  0  0  0  0  0  0  0  0  0  0  0
    0.3754   -3.7985   -1.3665 H   0  0  0  0  0  0  0  0  0  0  0  0
   -1.3035   -2.8324    0.0098 H   0  0  0  0  0  0  0  0  0  0  0  0
   -0.2021   -1.5325   -0.4339 H   0  0  0  0  0  0  0  0  0  0  0  0
   -0.2260   -3.0784    2.1950 H   0  0  0  0  0  0  0  0  0  0  0  0
    0.9220   -1.7993    1.8177 H   0  0  0  0  0  0  0  0  0  0  0  0
   -1.2748   -1.2956    3.2393 H   0  0  0  0  0  0  0  0  0  0  0  0
   -2.0351   -1.2063    1.6502 H   0  0  0  0  0  0  0  0  0  0  0  0
    0.3355    0.4576    2.6352 H   0  0  0  0  0  0  0  0  0  0  0  0
   -1.3371    1.0146    2.4977 H   0  0  0  0  0  0  0  0  0  0  0  0
   -3.1275    0.9266    0.9080 H   0  0  0  0  0  0  0  0  0  0  0  0
   -5.3954    1.8303   -2.0014 H   0  0  0  0  0  0  0  0  0  0  0  0
   -5.2327    0.9484    0.9217 H   0  0  0  0  0  0  0  0  0  0  0  0
   -7.7013    1.9808   -1.9684 H   0  0  0  0  0  0  0  0  0  0  0  0
  -10.1723    1.8998   -1.1907 H   0  0  0  0  0  0  0  0  0  0  0  0
  -10.3746    1.1555    1.3140 H   0  0  0  0  0  0  0  0  0  0  0  0
   -3.4794    1.9581   -3.2372 H   0  0  0  0  0  0  0  0  0  0  0  0
   -1.0394    1.8391   -3.5231 H   0  0  0  0  0  0  0  0  0  0  0  0
    1.6864    1.4942   -3.1556 H   0  0  0  0  0  0  0  0  0  0  0  0
    3.9217    1.0530   -2.2596 H   0  0  0  0  0  0  0  0  0  0  0  0
    4.5736    0.1691    1.3684 H   0  0  0  0  0  0  0  0  0  0  0  0
    5.7656    0.5133   -1.4250 H   0  0  0  0  0  0  0  0  0  0  0  0
    6.6229   -0.2696    2.3398 H   0  0  0  0  0  0  0  0  0  0  0  0
    9.1586   -0.6839    2.6782 H   0  0  0  0  0  0  0  0  0  0  0  0
   10.4819   -0.4749    0.4260 H   0  0  0  0  0  0  0  0  0  0  0  0
    2.3059    0.3060    1.6357 H   0  0  0  0  0  0  0  0  0  0  0  0
  1  2  1  0  0  0  0
  2  3  1  0  0  0  0
  3  4  1  0  0  0  0
  4  5  1  0  0  0  0
  5  6  1  0  0  0  0
  6  7  1  0  0  0  0
  7  8  1  0  0  0  0
  8  9  2  0  0  0  0
  9 10  1  0  0  0  0
 10 11  1  0  0  0  0
 11 12  2  0  0  0  0
 12 13  1  0  0  0  0
 13 14  2  0  0  0  0
 14 15  1  0  0  0  0
 15 16  2  0  0  0  0
 16 17  1  0  0  0  0
 10 18  2  0  0  0  0
 18 19  1  0  0  0  0
 19 20  2  0  0  0  0
 20 21  1  0  0  0  0
 21 22  2  0  0  0  0
 22 23  1  0  0  0  0
 23 24  2  0  0  0  0
 24 25  1  0  0  0  0
 25 26  2  0  0  0  0
 26 27  1  0  0  0  0
 27 28  2  0  0  0  0
 28 29  1  0  0  0  0
 29 30  2  0  0  0  0
 30 31  1  0  0  0  0
 24 32  1  0  0  0  0
 32 33  2  0  0  0  0
 33  7  1  0  0  0  0
 20  8  1  0  0  0  0
 33 21  1  0  0  0  0
 17 13  1  0  0  0  0
 31 27  1  0  0  0  0
  1 34  1  0  0  0  0
  1 35  1  0  0  0  0
  1 36  1  0  0  0  0
  2 37  1  0  0  0  0
  2 38  1  0  0  0  0
  3 39  1  0  0  0  0
  3 40  1  0  0  0  0
  4 41  1  0  0  0  0
  4 42  1  0  0  0  0
  5 43  1  0  0  0  0
  5 44  1  0  0  0  0
  6 45  1  0  0  0  0
  6 46  1  0  0  0  0
  9 47  1  0  0  0  0
 11 48  1  0  0  0  0
 12 49  1  0  0  0  0
 14 50  1  0  0  0  0
 15 51  1  0  0  0  0
 16 52  1  0  0  0  0
 18 53  1  0  0  0  0
 19 54  1  0  0  0  0
 22 55  1  0  0  0  0
 23 56  1  0  0  0  0
 25 57  1  0  0  0  0
 26 58  1  0  0  0  0
 28 59  1  0  0  0  0
 29 60  1  0  0  0  0
 30 61  1  0  0  0  0
 32 62  1  0  0  0  0
M  END
