
  xtb     03022213083D
 energy: -48.387292008232 gnorm: 0.000115211485 xtb: 6.4.1 (afa7bdf)
 31 34  0     0  0            999 V2000
   -4.9902   -0.4785    0.5158 C   0  0  0  0  0  0  0  0  0  0  0  0
   -4.8193    0.6311   -0.3269 C   0  0  0  0  0  0  0  0  0  0  0  0
   -3.5731    0.9825   -0.7639 C   0  0  0  0  0  0  0  0  0  0  0  0
   -2.4385    0.2396   -0.3748 C   0  0  0  0  0  0  0  0  0  0  0  0
   -1.1410    0.5845   -0.7998 C   0  0  0  0  0  0  0  0  0  0  0  0
   -0.0542   -0.1522   -0.3981 C   0  0  0  0  0  0  0  0  0  0  0  0
    1.2323    0.1905   -0.8337 N   0  0  0  0  0  0  0  0  0  0  0  0
    1.5907    0.5456   -2.1069 C   0  0  0  0  0  0  0  0  0  0  0  0
    2.8519    0.7871   -2.2559 N   0  0  0  0  0  0  0  0  0  0  0  0
    3.4076    0.6059   -1.0127 C   0  0  0  0  0  0  0  0  0  0  0  0
    4.7222    0.7528   -0.5866 C   0  0  0  0  0  0  0  0  0  0  0  0
    4.9925    0.5254    0.7462 C   0  0  0  0  0  0  0  0  0  0  0  0
    3.9860    0.1725    1.6469 C   0  0  0  0  0  0  0  0  0  0  0  0
    2.6740    0.0194    1.2457 C   0  0  0  0  0  0  0  0  0  0  0  0
    2.3981    0.2229   -0.0974 C   0  0  0  0  0  0  0  0  0  0  0  0
   -0.2272   -1.2752    0.4379 C   0  0  0  0  0  0  0  0  0  0  0  0
   -1.4751   -1.6240    0.8651 C   0  0  0  0  0  0  0  0  0  0  0  0
   -2.6113   -0.8813    0.4796 C   0  0  0  0  0  0  0  0  0  0  0  0
   -3.9106   -1.2185    0.9100 C   0  0  0  0  0  0  0  0  0  0  0  0
   -5.9829   -0.7415    0.8501 H   0  0  0  0  0  0  0  0  0  0  0  0
   -5.6833    1.2054   -0.6272 H   0  0  0  0  0  0  0  0  0  0  0  0
   -3.4372    1.8360   -1.4124 H   0  0  0  0  0  0  0  0  0  0  0  0
   -1.0078    1.4463   -1.4379 H   0  0  0  0  0  0  0  0  0  0  0  0
    0.8717    0.5843   -2.9029 H   0  0  0  0  0  0  0  0  0  0  0  0
    5.4920    1.0420   -1.2836 H   0  0  0  0  0  0  0  0  0  0  0  0
    6.0037    0.6313    1.1104 H   0  0  0  0  0  0  0  0  0  0  0  0
    4.2402    0.0199    2.6854 H   0  0  0  0  0  0  0  0  0  0  0  0
    1.8984   -0.2342    1.9527 H   0  0  0  0  0  0  0  0  0  0  0  0
    0.6367   -1.8607    0.7136 H   0  0  0  0  0  0  0  0  0  0  0  0
   -1.6098   -2.4858    1.5027 H   0  0  0  0  0  0  0  0  0  0  0  0
   -4.0362   -2.0736    1.5587 H   0  0  0  0  0  0  0  0  0  0  0  0
  1  2  2  0  0  0  0
  2  3  1  0  0  0  0
  3  4  2  0  0  0  0
  4  5  1  0  0  0  0
  5  6  2  0  0  0  0
  6  7  1  0  0  0  0
  7  8  1  0  0  0  0
  8  9  2  0  0  0  0
  9 10  1  0  0  0  0
 10 11  2  0  0  0  0
 11 12  1  0  0  0  0
 12 13  2  0  0  0  0
 13 14  1  0  0  0  0
 14 15  2  0  0  0  0
  6 16  1  0  0  0  0
 16 17  2  0  0  0  0
 17 18  1  0  0  0  0
 18 19  2  0  0  0  0
 19  1  1  0  0  0  0
 18  4  1  0  0  0  0
 15  7  1  0  0  0  0
 15 10  1  0  0  0  0
  1 20  1  0  0  0  0
  2 21  1  0  0  0  0
  3 22  1  0  0  0  0
  5 23  1  0  0  0  0
  8 24  1  0  0  0  0
 11 25  1  0  0  0  0
 12 26  1  0  0  0  0
 13 27  1  0  0  0  0
 14 28  1  0  0  0  0
 16 29  1  0  0  0  0
 17 30  1  0  0  0  0
 19 31  1  0  0  0  0
M  END
