
  xtb     03022214573D
 energy: -50.150969619254 gnorm: 0.000142469685 xtb: 6.4.1 (afa7bdf)
 28 29  0     0  0            999 V2000
    4.4481    1.5308    1.3831 C   0  0  0  0  0  0  0  0  0  0  0  0
    3.8362    0.7259    0.2525 C   0  0  0  0  0  0  0  0  0  0  0  0
    2.4292    0.6428    0.4714 O   0  0  0  0  0  0  0  0  0  0  0  0
    1.7252   -0.0196   -0.4526 C   0  0  0  0  0  0  0  0  0  0  0  0
    2.2211   -0.5330   -1.4317 O   0  0  0  0  0  0  0  0  0  0  0  0
    0.2991   -0.0454   -0.1372 C   0  0  0  0  0  0  0  0  0  0  0  0
   -0.3611    0.5137    0.9619 C   0  0  0  0  0  0  0  0  0  0  0  0
   -1.7186    0.2445    0.8516 C   0  0  0  0  0  0  0  0  0  0  0  0
   -2.7627    0.6619    1.8094 C   0  0  0  0  0  0  0  0  0  0  0  0
   -4.0213    0.2855    1.4923 N   0  0  0  0  0  0  0  0  0  0  0  0
   -2.4915    1.2990    2.8077 O   0  0  0  0  0  0  0  0  0  0  0  0
   -1.9057   -0.4697   -0.2950 N   0  0  0  0  0  0  0  0  0  0  0  0
   -3.0557   -0.9260   -0.7707 N   0  0  0  0  0  0  0  0  0  0  0  0
   -3.0244   -1.5912   -1.8900 C   0  0  0  0  0  0  0  0  0  0  0  0
   -1.8485   -1.8523   -2.6196 C   0  0  0  0  0  0  0  0  0  0  0  0
   -0.6591   -1.3795   -2.1265 C   0  0  0  0  0  0  0  0  0  0  0  0
   -0.6820   -0.6642   -0.9255 C   0  0  0  0  0  0  0  0  0  0  0  0
    4.2507    1.0467    2.3356 H   0  0  0  0  0  0  0  0  0  0  0  0
    5.5217    1.6077    1.2377 H   0  0  0  0  0  0  0  0  0  0  0  0
    4.0188    2.5287    1.4061 H   0  0  0  0  0  0  0  0  0  0  0  0
    4.2494   -0.2889    0.2147 H   0  0  0  0  0  0  0  0  0  0  0  0
    4.0162    1.1997   -0.7196 H   0  0  0  0  0  0  0  0  0  0  0  0
    0.0877    1.0618    1.7655 H   0  0  0  0  0  0  0  0  0  0  0  0
   -4.7668    0.5469    2.1145 H   0  0  0  0  0  0  0  0  0  0  0  0
   -4.2094   -0.2438    0.6540 H   0  0  0  0  0  0  0  0  0  0  0  0
   -3.9867   -1.9404   -2.2336 H   0  0  0  0  0  0  0  0  0  0  0  0
   -1.8991   -2.4103   -3.5393 H   0  0  0  0  0  0  0  0  0  0  0  0
    0.2892   -1.5313   -2.6167 H   0  0  0  0  0  0  0  0  0  0  0  0
  1  2  1  0  0  0  0
  2  3  1  0  0  0  0
  3  4  1  0  0  0  0
  4  5  2  0  0  0  0
  4  6  1  0  0  0  0
  6  7  1  0  0  0  0
  7  8  2  0  0  0  0
  8  9  1  0  0  0  0
  9 10  1  0  0  0  0
  9 11  2  0  0  0  0
  8 12  1  0  0  0  0
 12 13  1  0  0  0  0
 13 14  2  0  0  0  0
 14 15  1  0  0  0  0
 15 16  2  0  0  0  0
 16 17  1  0  0  0  0
 17  6  2  0  0  0  0
 17 12  1  0  0  0  0
  1 18  1  0  0  0  0
  1 19  1  0  0  0  0
  1 20  1  0  0  0  0
  2 21  1  0  0  0  0
  2 22  1  0  0  0  0
  7 23  1  0  0  0  0
 10 24  1  0  0  0  0
 10 25  1  0  0  0  0
 14 26  1  0  0  0  0
 15 27  1  0  0  0  0
 16 28  1  0  0  0  0
M  END
