
  xtb     03022214233D
 energy: -82.627667894129 gnorm: 0.000206019047 xtb: 6.4.1 (afa7bdf)
 49 52  0     0  0            999 V2000
   -6.2413    1.5319   -0.2768 C   0  0  0  0  0  0  0  0  0  0  0  0
   -5.6628    0.6828    0.8495 C   0  0  0  0  0  0  0  0  0  0  0  0
   -5.8428   -0.8184    0.6207 C   0  0  0  0  0  0  0  0  0  0  0  0
   -5.0459   -1.4076   -0.5460 C   0  0  0  0  0  0  0  0  0  0  0  0
   -3.5259   -1.3072   -0.3681 C   0  0  0  0  0  0  0  0  0  0  0  0
   -2.9239   -0.1332   -1.1408 C   0  0  0  0  0  0  0  0  0  0  0  0
   -1.5023    0.0136   -0.8444 N   0  0  0  0  0  0  0  0  0  0  0  0
   -1.1712    0.7937    0.2493 C   0  0  0  0  0  0  0  0  0  0  0  0
   -2.0333    1.3277    0.9164 O   0  0  0  0  0  0  0  0  0  0  0  0
    0.2656    0.9432    0.5463 C   0  0  0  0  0  0  0  0  0  0  0  0
    0.6564    1.7481    1.5946 C   0  0  0  0  0  0  0  0  0  0  0  0
    2.0135    1.9270    1.8688 C   0  0  0  0  0  0  0  0  0  0  0  0
    2.9678    1.2839    1.1230 C   0  0  0  0  0  0  0  0  0  0  0  0
    2.6107    0.4192    0.0678 C   0  0  0  0  0  0  0  0  0  0  0  0
    3.5570   -0.2834   -0.7345 C   0  0  0  0  0  0  0  0  0  0  0  0
    4.9873   -0.2651   -0.4708 C   0  0  0  0  0  0  0  0  0  0  0  0
    5.9787   -0.1854   -1.4271 C   0  0  0  0  0  0  0  0  0  0  0  0
    7.2685   -0.2701   -0.9002 C   0  0  0  0  0  0  0  0  0  0  0  0
    7.2457   -0.4351    0.4634 C   0  0  0  0  0  0  0  0  0  0  0  0
    8.3298   -0.5573    1.3488 N   0  0  0  0  0  4  0  0  0  0  0  0
    9.4485   -0.5350    0.8765 O   0  0  0  0  0  0  0  0  0  0  0  0
    8.0612   -0.6761    2.5299 O   0  0  0  0  0  1  0  0  0  0  0  0
    5.6469   -0.4747    1.1158 S   0  0  0  0  0  0  0  0  0  0  0  0
    3.1147   -1.0375   -1.8087 C   0  0  0  0  0  0  0  0  0  0  0  0
    1.7608   -1.1553   -2.1064 C   0  0  0  0  0  0  0  0  0  0  0  0
    0.8191   -0.5188   -1.3254 C   0  0  0  0  0  0  0  0  0  0  0  0
    1.2306    0.2772   -0.2379 C   0  0  0  0  0  0  0  0  0  0  0  0
   -0.6118   -0.6737   -1.6481 C   0  0  0  0  0  0  0  0  0  0  0  0
   -0.9996   -1.3564   -2.5734 O   0  0  0  0  0  0  0  0  0  0  0  0
   -5.7420    1.3327   -1.2218 H   0  0  0  0  0  0  0  0  0  0  0  0
   -7.3023    1.3244   -0.4027 H   0  0  0  0  0  0  0  0  0  0  0  0
   -6.1241    2.5889   -0.0488 H   0  0  0  0  0  0  0  0  0  0  0  0
   -6.1756    0.9457    1.7783 H   0  0  0  0  0  0  0  0  0  0  0  0
   -4.6073    0.9169    0.9899 H   0  0  0  0  0  0  0  0  0  0  0  0
   -5.5549   -1.3458    1.5337 H   0  0  0  0  0  0  0  0  0  0  0  0
   -6.9033   -1.0206    0.4478 H   0  0  0  0  0  0  0  0  0  0  0  0
   -5.3220   -2.4605   -0.6321 H   0  0  0  0  0  0  0  0  0  0  0  0
   -5.3376   -0.9242   -1.4791 H   0  0  0  0  0  0  0  0  0  0  0  0
   -3.2881   -1.1936    0.6916 H   0  0  0  0  0  0  0  0  0  0  0  0
   -3.0470   -2.2220   -0.7235 H   0  0  0  0  0  0  0  0  0  0  0  0
   -3.4097    0.8023   -0.8649 H   0  0  0  0  0  0  0  0  0  0  0  0
   -3.0181   -0.3029   -2.2149 H   0  0  0  0  0  0  0  0  0  0  0  0
   -0.1020    2.2448    2.1804 H   0  0  0  0  0  0  0  0  0  0  0  0
    2.3114    2.5827    2.6724 H   0  0  0  0  0  0  0  0  0  0  0  0
    4.0094    1.4582    1.3409 H   0  0  0  0  0  0  0  0  0  0  0  0
    5.7703   -0.0396   -2.4715 H   0  0  0  0  0  0  0  0  0  0  0  0
    8.1791   -0.2168   -1.4683 H   0  0  0  0  0  0  0  0  0  0  0  0
    3.8348   -1.5729   -2.4085 H   0  0  0  0  0  0  0  0  0  0  0  0
    1.4276   -1.7554   -2.9393 H   0  0  0  0  0  0  0  0  0  0  0  0
  1  2  1  0  0  0  0
  2  3  1  0  0  0  0
  3  4  1  0  0  0  0
  4  5  1  0  0  0  0
  5  6  1  0  0  0  0
  6  7  1  0  0  0  0
  7  8  1  0  0  0  0
  8  9  2  0  0  0  0
  8 10  1  0  0  0  0
 10 11  1  0  0  0  0
 11 12  2  0  0  0  0
 12 13  1  0  0  0  0
 13 14  2  0  0  0  0
 14 15  1  0  0  0  0
 15 16  1  0  0  0  0
 16 17  2  0  0  0  0
 17 18  1  0  0  0  0
 18 19  2  0  0  0  0
 19 20  1  0  0  0  0
 20 21  2  0  0  0  0
 20 22  1  0  0  0  0
 19 23  1  0  0  0  0
 15 24  2  0  0  0  0
 24 25  1  0  0  0  0
 25 26  2  0  0  0  0
 26 27  1  0  0  0  0
 26 28  1  0  0  0  0
 28 29  2  0  0  0  0
 28  7  1  0  0  0  0
 27 10  2  0  0  0  0
 27 14  1  0  0  0  0
 23 16  1  0  0  0  0
  1 30  1  0  0  0  0
  1 31  1  0  0  0  0
  1 32  1  0  0  0  0
  2 33  1  0  0  0  0
  2 34  1  0  0  0  0
  3 35  1  0  0  0  0
  3 36  1  0  0  0  0
  4 37  1  0  0  0  0
  4 38  1  0  0  0  0
  5 39  1  0  0  0  0
  5 40  1  0  0  0  0
  6 41  1  0  0  0  0
  6 42  1  0  0  0  0
 11 43  1  0  0  0  0
 12 44  1  0  0  0  0
 13 45  1  0  0  0  0
 17 46  1  0  0  0  0
 18 47  1  0  0  0  0
 24 48  1  0  0  0  0
 25 49  1  0  0  0  0
M  CHG  1  20   1
M  CHG  1  22  -1
M  END
