
     RDKit          3D

 44 47  0  0  0  0  0  0  0  0999 V2000
   -5.9454    0.1987    1.3534 C   0  0  0  0  0  0  0  0  0  0  0  0
   -5.0000   -0.6440    0.5143 C   0  0  0  0  0  0  0  0  0  0  0  0
   -4.3020    0.1517   -0.4596 N   0  0  0  0  0  0  0  0  0  0  0  0
   -5.0142    0.7629   -1.5490 C   0  0  0  0  0  0  0  0  0  0  0  0
   -5.5437   -0.2810   -2.5202 C   0  0  0  0  0  0  0  0  0  0  0  0
   -2.8971    0.3022   -0.3589 C   0  0  0  0  0  0  0  0  0  0  0  0
   -2.2301    1.4744   -0.6823 C   0  0  0  0  0  0  0  0  0  0  0  0
   -0.8649    1.6207   -0.6117 C   0  0  0  0  0  0  0  0  0  0  0  0
   -0.0677    0.5591   -0.1973 C   0  0  0  0  0  0  0  0  0  0  0  0
    1.2974    0.6728   -0.1111 C   0  0  0  0  0  0  0  0  0  0  0  0
    2.0348   -0.4193    0.3070 C   0  0  0  0  0  0  0  0  0  0  0  0
    3.4988   -0.3353    0.4433 C   0  0  0  0  0  0  0  0  0  0  0  0
    4.1918    0.8023    0.2452 N   0  0  0  0  0  0  0  0  0  0  0  0
    5.5082    0.6030    0.4581 C   0  0  0  0  0  0  0  0  0  0  0  0
    6.6226    1.4362    0.3919 C   0  0  0  0  0  0  0  0  0  0  0  0
    7.8516    0.8735    0.6896 C   0  0  0  0  0  0  0  0  0  0  0  0
    7.9488   -0.4563    1.0345 C   0  0  0  0  0  0  0  0  0  0  0  0
    6.8751   -1.2990    1.1078 C   0  0  0  0  0  0  0  0  0  0  0  0
    5.6388   -0.7185    0.8044 C   0  0  0  0  0  0  0  0  0  0  0  0
    4.3898   -1.2475    0.7816 N   0  0  0  0  0  0  0  0  0  0  0  0
    1.3464   -1.5615    0.6140 C   0  0  0  0  0  0  0  0  0  0  0  0
    1.9181   -2.6034    0.9994 O   0  0  0  0  0  0  0  0  0  0  0  0
    0.0283   -1.6337    0.5216 O   0  0  0  0  0  0  0  0  0  0  0  0
   -0.7123   -0.6123    0.1268 C   0  0  0  0  0  0  0  0  0  0  0  0
   -2.0966   -0.7537    0.0535 C   0  0  0  0  0  0  0  0  0  0  0  0
   -6.8076   -0.4394    1.6044 H   0  0  0  0  0  0  0  0  0  0  0  0
   -6.3082    1.0842    0.7857 H   0  0  0  0  0  0  0  0  0  0  0  0
   -5.4580    0.5601    2.2764 H   0  0  0  0  0  0  0  0  0  0  0  0
   -5.5451   -1.4782    0.0440 H   0  0  0  0  0  0  0  0  0  0  0  0
   -4.2805   -1.0879    1.2418 H   0  0  0  0  0  0  0  0  0  0  0  0
   -4.2965    1.3764   -2.1614 H   0  0  0  0  0  0  0  0  0  0  0  0
   -5.8573    1.4046   -1.2513 H   0  0  0  0  0  0  0  0  0  0  0  0
   -5.7069   -1.2308   -1.9653 H   0  0  0  0  0  0  0  0  0  0  0  0
   -4.9013   -0.4130   -3.4089 H   0  0  0  0  0  0  0  0  0  0  0  0
   -6.5520    0.0186   -2.8881 H   0  0  0  0  0  0  0  0  0  0  0  0
   -2.8485    2.3046   -1.0010 H   0  0  0  0  0  0  0  0  0  0  0  0
   -0.3385    2.5333   -0.8637 H   0  0  0  0  0  0  0  0  0  0  0  0
    1.7884    1.6290   -0.3723 H   0  0  0  0  0  0  0  0  0  0  0  0
    6.4937    2.4747    0.1129 H   0  0  0  0  0  0  0  0  0  0  0  0
    8.7361    1.5194    0.6450 H   0  0  0  0  0  0  0  0  0  0  0  0
    8.9316   -0.8630    1.2604 H   0  0  0  0  0  0  0  0  0  0  0  0
    6.8803   -2.3329    1.3644 H   0  0  0  0  0  0  0  0  0  0  0  0
    4.1698   -2.2517    1.0059 H   0  0  0  0  0  0  0  0  0  0  0  0
   -2.5760   -1.7001    0.3220 H   0  0  0  0  0  0  0  0  0  0  0  0
  1  2  1  0
  2  3  1  0
  3  4  1  0
  4  5  1  0
  3  6  1  0
  6  7  2  0
  7  8  1  0
  8  9  2  0
  9 10  1  0
 10 11  2  0
 11 12  1  0
 12 13  2  0
 13 14  1  0
 14 15  2  0
 15 16  1  0
 16 17  2  0
 17 18  1  0
 18 19  2  0
 19 20  1  0
 11 21  1  0
 21 22  2  0
 21 23  1  0
 23 24  1  0
 24 25  2  0
 25  6  1  0
 24  9  1  0
 20 12  1  0
 19 14  1  0
  1 26  1  0
  1 27  1  0
  1 28  1  0
  2 29  1  0
  2 30  1  0
  4 31  1  0
  4 32  1  0
  5 33  1  0
  5 34  1  0
  5 35  1  0
  7 36  1  0
  8 37  1  0
 10 38  1  0
 15 39  1  0
 16 40  1  0
 17 41  1  0
 18 42  1  0
 20 43  1  0
 25 44  1  0
M  END
