
     RDKit          3D

 36 40  0  0  0  0  0  0  0  0999 V2000
    2.5544    2.8663    1.1366 C   0  0  0  0  0  0  0  0  0  0  0  0
    1.2162    2.6260    1.3235 C   0  0  0  0  0  0  0  0  0  0  0  0
    0.7062    1.4536    0.7406 C   0  0  0  0  0  0  0  0  0  0  0  0
    1.3270    0.5644    0.0341 C   0  0  0  0  0  0  0  0  0  0  0  0
    2.7096    0.8498   -0.1110 C   0  0  0  0  0  0  0  0  0  0  0  0
    3.3175    1.9763    0.4183 C   0  0  0  0  0  0  0  0  0  0  0  0
    3.5853   -0.1921   -0.4821 C   0  0  0  0  0  0  0  0  0  0  0  0
    3.0432   -1.4286   -0.6758 C   0  0  0  0  0  0  0  0  0  0  0  0
    1.7090   -1.7039   -0.5506 C   0  0  0  0  0  0  0  0  0  0  0  0
    1.2765   -3.0394   -0.5248 C   0  0  0  0  0  0  0  0  0  0  0  0
   -0.0128   -3.3301   -0.2031 C   0  0  0  0  0  0  0  0  0  0  0  0
   -0.9256   -2.2996    0.0793 C   0  0  0  0  0  0  0  0  0  0  0  0
   -2.2564   -2.5799    0.2092 C   0  0  0  0  0  0  0  0  0  0  0  0
   -3.2291   -1.6247    0.2587 C   0  0  0  0  0  0  0  0  0  0  0  0
   -2.8260   -0.2786    0.1457 C   0  0  0  0  0  0  0  0  0  0  0  0
   -3.8302    0.6236   -0.1600 C   0  0  0  0  0  0  0  0  0  0  0  0
   -3.4790    1.8599   -0.6382 C   0  0  0  0  0  0  0  0  0  0  0  0
   -2.1624    2.1764   -0.8102 C   0  0  0  0  0  0  0  0  0  0  0  0
   -1.2377    1.2017   -0.4612 C   0  0  0  0  0  0  0  0  0  0  0  0
   -1.4389    0.0141    0.0252 C   0  0  0  0  0  0  0  0  0  0  0  0
   -0.4395   -0.9445    0.0335 C   0  0  0  0  0  0  0  0  0  0  0  0
    0.7586   -0.6748   -0.2059 C   0  0  0  0  0  0  0  0  0  0  0  0
    2.9455    3.7648    1.5735 H   0  0  0  0  0  0  0  0  0  0  0  0
    0.5768    3.3044    1.8926 H   0  0  0  0  0  0  0  0  0  0  0  0
   -0.2544    1.1766    1.1962 H   0  0  0  0  0  0  0  0  0  0  0  0
    4.3667    2.1432    0.2651 H   0  0  0  0  0  0  0  0  0  0  0  0
    4.6106    0.0121   -0.5994 H   0  0  0  0  0  0  0  0  0  0  0  0
    3.6689   -2.2851   -0.9513 H   0  0  0  0  0  0  0  0  0  0  0  0
    2.0099   -3.7990   -0.7698 H   0  0  0  0  0  0  0  0  0  0  0  0
   -0.3755   -4.3519   -0.1538 H   0  0  0  0  0  0  0  0  0  0  0  0
   -2.4972   -3.6481    0.2739 H   0  0  0  0  0  0  0  0  0  0  0  0
   -4.2477   -1.8416    0.3791 H   0  0  0  0  0  0  0  0  0  0  0  0
   -4.8634    0.3259   -0.0111 H   0  0  0  0  0  0  0  0  0  0  0  0
   -4.2416    2.5778   -0.8754 H   0  0  0  0  0  0  0  0  0  0  0  0
   -1.8123    3.1243   -1.1936 H   0  0  0  0  0  0  0  0  0  0  0  0
   -0.2521    1.3809   -0.9238 H   0  0  0  0  0  0  0  0  0  0  0  0
  1  2  2  0
  2  3  1  0
  3  4  2  0
  4  5  1  0
  5  6  2  0
  5  7  1  0
  7  8  2  0
  8  9  1  0
  9 10  2  0
 10 11  1  0
 11 12  2  0
 12 13  1  0
 13 14  2  0
 14 15  1  0
 15 16  2  0
 16 17  1  0
 17 18  2  0
 18 19  1  0
 19 20  2  0
 20 21  1  0
 21 22  2  0
  6  1  1  0
 22  9  1  0
 22  4  1  0
 21 12  1  0
 20 15  1  0
  1 23  1  0
  2 24  1  0
  3 25  1  0
  6 26  1  0
  7 27  1  0
  8 28  1  0
 10 29  1  0
 11 30  1  0
 13 31  1  0
 14 32  1  0
 16 33  1  0
 17 34  1  0
 18 35  1  0
 19 36  1  0
M  END
