
     RDKit          3D

 21 23  0  0  0  0  0  0  0  0999 V2000
   -0.2580   -1.6113   -1.9825 F   0  0  0  0  0  0  0  0  0  0  0  0
   -0.0436   -1.3002   -0.5588 B   0  0  0  0  0  4  0  0  0  0  0  0
    0.1320   -2.5888    0.0988 F   0  0  0  0  0  0  0  0  0  0  0  0
   -1.2590   -0.6180   -0.0058 N   0  0  0  0  0  0  0  0  0  0  0  0
   -2.5468   -1.0829    0.0583 C   0  0  0  0  0  0  0  0  0  0  0  0
   -3.3116   -0.1085    0.6459 C   0  0  0  0  0  0  0  0  0  0  0  0
   -2.4757    0.9408    0.9328 C   0  0  0  0  0  0  0  0  0  0  0  0
   -1.1846    0.6072    0.5171 C   0  0  0  0  0  0  0  0  0  0  0  0
    0.0819    1.3529    0.5808 C   0  0  0  0  0  0  0  0  0  0  0  0
    1.2149    0.8474    0.1225 C   0  0  0  0  0  0  0  0  0  0  0  0
    2.5949    1.3541    0.0576 C   0  0  0  0  0  0  0  0  0  0  0  0
    3.2817    0.3845   -0.5116 C   0  0  0  0  0  0  0  0  0  0  0  0
    2.4161   -0.7352   -0.8233 C   0  0  0  0  0  0  0  0  0  0  0  0
    1.2071   -0.4495   -0.4457 N   0  0  0  0  0  4  0  0  0  0  0  0
   -2.9002   -2.0617   -0.2981 H   0  0  0  0  0  0  0  0  0  0  0  0
   -4.3744   -0.1946    0.8296 H   0  0  0  0  0  0  0  0  0  0  0  0
   -2.7147    1.8787    1.3947 H   0  0  0  0  0  0  0  0  0  0  0  0
    0.1271    2.3401    1.0052 H   0  0  0  0  0  0  0  0  0  0  0  0
    2.9631    2.3103    0.4010 H   0  0  0  0  0  0  0  0  0  0  0  0
    4.3574    0.4250   -0.7180 H   0  0  0  0  0  0  0  0  0  0  0  0
    2.6923   -1.6904   -1.3006 H   0  0  0  0  0  0  0  0  0  0  0  0
  1  2  1  0
  2  3  1  0
  2  4  1  0
  4  5  1  0
  5  6  2  0
  6  7  1  0
  7  8  2  0
  8  9  1  0
  9 10  2  0
 10 11  1  0
 11 12  2  0
 12 13  1  0
 13 14  2  0
 14  2  1  0
  8  4  1  0
 14 10  1  0
  5 15  1  0
  6 16  1  0
  7 17  1  0
  9 18  1  0
 11 19  1  0
 12 20  1  0
 13 21  1  0
M  CHG  2   2  -1  14   1
M  END
