
     RDKit          3D

 24 26  0  0  0  0  0  0  0  0999 V2000
   -4.6616   -0.5173    0.4609 C   0  0  0  0  0  0  0  0  0  0  0  0
   -4.1965    0.4560   -0.3974 C   0  0  0  0  0  0  0  0  0  0  0  0
   -2.8175    0.6103   -0.5369 C   0  0  0  0  0  0  0  0  0  0  0  0
   -1.9286   -0.1783    0.1552 C   0  0  0  0  0  0  0  0  0  0  0  0
   -0.4883   -0.0370    0.0271 C   0  0  0  0  0  0  0  0  0  0  0  0
    0.7795   -0.9201    0.8012 P   0  0  0  0  0  0  0  0  0  0  0  0
    2.2908   -0.2809    0.2344 C   0  0  0  0  0  0  0  0  0  0  0  0
    3.5881   -0.6527    0.5584 C   0  0  0  0  0  0  0  0  0  0  0  0
    4.6691   -0.0254    0.0032 C   0  0  0  0  0  0  0  0  0  0  0  0
    4.4682    0.9955   -0.8950 C   0  0  0  0  0  0  0  0  0  0  0  0
    3.2032    1.3984   -1.2464 C   0  0  0  0  0  0  0  0  0  0  0  0
    2.1307    0.7476   -0.6706 C   0  0  0  0  0  0  0  0  0  0  0  0
    0.4578    1.0218   -0.9076 S   0  0  0  0  0  0  0  0  0  0  0  0
   -2.4216   -1.1418    1.0050 C   0  0  0  0  0  0  0  0  0  0  0  0
   -3.7809   -1.3152    1.1613 C   0  0  0  0  0  0  0  0  0  0  0  0
   -5.7357   -0.6145    0.5494 H   0  0  0  0  0  0  0  0  0  0  0  0
   -4.8965    1.0852   -0.9496 H   0  0  0  0  0  0  0  0  0  0  0  0
   -2.4488    1.3597   -1.1979 H   0  0  0  0  0  0  0  0  0  0  0  0
    3.7351   -1.4609    1.2697 H   0  0  0  0  0  0  0  0  0  0  0  0
    5.6680   -0.3618    0.2968 H   0  0  0  0  0  0  0  0  0  0  0  0
    5.3212    1.4899   -1.3326 H   0  0  0  0  0  0  0  0  0  0  0  0
    3.0301    2.2005   -1.9522 H   0  0  0  0  0  0  0  0  0  0  0  0
   -1.7607   -1.8001    1.5830 H   0  0  0  0  0  0  0  0  0  0  0  0
   -4.2049   -2.0587    1.8172 H   0  0  0  0  0  0  0  0  0  0  0  0
  1  2  2  0
  2  3  1  0
  3  4  2  0
  4  5  1  0
  5  6  2  0
  6  7  1  0
  7  8  2  0
  8  9  1  0
  9 10  2  0
 10 11  1  0
 11 12  2  0
 12 13  1  0
  4 14  1  0
 14 15  2  0
 15  1  1  0
 13  5  1  0
 12  7  1  0
  1 16  1  0
  2 17  1  0
  3 18  1  0
  8 19  1  0
  9 20  1  0
 10 21  1  0
 11 22  1  0
 14 23  1  0
 15 24  1  0
M  END
