
     RDKit          3D

 33 35  0  0  0  0  0  0  0  0999 V2000
    0.8238    3.9714    2.0810 F   0  0  0  0  0  0  0  0  0  0  0  0
    0.9448    2.5479    2.4302 B   0  0  0  0  0  4  0  0  0  0  0  0
    1.1352    2.4691    3.8838 F   0  0  0  0  0  0  0  0  0  0  0  0
   -0.3059    1.8859    1.9931 O   0  0  0  0  0  0  0  0  0  0  0  0
   -0.3441    0.9222    1.0245 C   0  0  0  0  0  0  0  0  0  0  0  0
   -1.5669    0.2737    0.5952 C   0  0  0  0  0  0  0  0  0  0  0  0
   -2.5671   -0.2741    0.2336 C   0  0  0  0  0  0  0  0  0  0  0  0
   -3.7519   -0.9411   -0.2178 C   0  0  0  0  0  0  0  0  0  0  0  0
   -4.2934   -0.6098   -1.4393 C   0  0  0  0  0  0  0  0  0  0  0  0
   -5.4440   -1.2302   -1.9175 C   0  0  0  0  0  0  0  0  0  0  0  0
   -6.0509   -2.1905   -1.1581 C   0  0  0  0  0  0  0  0  0  0  0  0
   -5.5165   -2.5350    0.0749 C   0  0  0  0  0  0  0  0  0  0  0  0
   -4.3685   -1.9095    0.5419 C   0  0  0  0  0  0  0  0  0  0  0  0
    0.8146    0.5652    0.4474 C   0  0  0  0  0  0  0  0  0  0  0  0
    2.0783    1.1460    0.7998 C   0  0  0  0  0  0  0  0  0  0  0  0
    3.3129    0.7151    0.1333 C   0  0  0  0  0  0  0  0  0  0  0  0
    4.5287    1.3010    0.5024 C   0  0  0  0  0  0  0  0  0  0  0  0
    5.7136    0.9292   -0.0944 C   0  0  0  0  0  0  0  0  0  0  0  0
    5.7682   -0.0341   -1.0820 C   0  0  0  0  0  0  0  0  0  0  0  0
    4.5760   -0.6142   -1.4496 C   0  0  0  0  0  0  0  0  0  0  0  0
    3.3685   -0.2408   -0.8469 C   0  0  0  0  0  0  0  0  0  0  0  0
    2.1265    2.0358    1.6916 O   0  0  0  0  0  3  0  0  0  0  0  0
   -3.8346    0.1410   -2.0525 H   0  0  0  0  0  0  0  0  0  0  0  0
   -5.8268   -0.9480   -2.8588 H   0  0  0  0  0  0  0  0  0  0  0  0
   -6.9550   -2.6953   -1.5061 H   0  0  0  0  0  0  0  0  0  0  0  0
   -6.0293   -3.3018    0.6453 H   0  0  0  0  0  0  0  0  0  0  0  0
   -4.0037   -2.2214    1.5060 H   0  0  0  0  0  0  0  0  0  0  0  0
    0.7621   -0.2034   -0.3203 H   0  0  0  0  0  0  0  0  0  0  0  0
    4.4754    2.0560    1.2777 H   0  0  0  0  0  0  0  0  0  0  0  0
    6.6496    1.3878    0.1971 H   0  0  0  0  0  0  0  0  0  0  0  0
    6.7203   -0.2937   -1.5217 H   0  0  0  0  0  0  0  0  0  0  0  0
    4.6001   -1.3706   -2.2215 H   0  0  0  0  0  0  0  0  0  0  0  0
    2.4600   -0.7336   -1.1784 H   0  0  0  0  0  0  0  0  0  0  0  0
  1  2  1  0
  2  3  1  0
  2  4  1  0
  4  5  1  0
  5  6  1  0
  6  7  3  0
  7  8  1  0
  8  9  2  0
  9 10  1  0
 10 11  2  0
 11 12  1  0
 12 13  2  0
  5 14  2  0
 14 15  1  0
 15 16  1  0
 16 17  2  0
 17 18  1  0
 18 19  2  0
 19 20  1  0
 20 21  2  0
 15 22  2  0
 22  2  1  0
 13  8  1  0
 21 16  1  0
  9 23  1  0
 10 24  1  0
 11 25  1  0
 12 26  1  0
 13 27  1  0
 14 28  1  0
 17 29  1  0
 18 30  1  0
 19 31  1  0
 20 32  1  0
 21 33  1  0
M  CHG  2   2  -1  22   1
M  END
