
     RDKit          3D

 24 25  0  0  0  0  0  0  0  0999 V2000
   -1.6593   -3.4361   -0.6691 N   0  0  0  0  0  0  0  0  0  0  0  0
   -1.2421   -2.3624   -0.7799 C   0  0  0  0  0  0  0  0  0  0  0  0
   -0.7003   -1.0204   -0.9350 C   0  0  0  0  0  0  0  0  0  0  0  0
    0.8084   -1.0060   -0.9963 C   0  0  0  0  0  0  0  0  0  0  0  0
    1.2226    0.2935   -0.4000 C   0  0  0  0  0  0  0  0  0  0  0  0
    2.2409    0.1923    0.6479 C   0  0  0  0  0  0  0  0  0  0  0  0
    3.4956   -0.3837    0.3256 N   0  0  0  0  0  0  0  0  0  0  0  0
    2.0469    0.5946    1.8178 O   0  0  0  0  0  0  0  0  0  0  0  0
   -0.0038    0.8950    0.0531 N   0  0  0  0  0  0  0  0  0  0  0  0
   -0.4046    2.1991    0.2119 N   0  0  0  0  0  0  0  0  0  0  0  0
   -1.6307    2.4936    0.5203 C   0  0  0  0  0  0  0  0  0  0  0  0
   -2.6298    1.4682    0.7251 C   0  0  0  0  0  0  0  0  0  0  0  0
   -2.2836    0.2037    0.6145 C   0  0  0  0  0  0  0  0  0  0  0  0
   -0.9457   -0.2049    0.3105 C   0  0  0  0  0  0  0  0  0  0  0  0
   -1.0730   -0.5001   -1.8250 H   0  0  0  0  0  0  0  0  0  0  0  0
    1.1573   -1.8799   -0.3906 H   0  0  0  0  0  0  0  0  0  0  0  0
    1.1398   -1.1325   -2.0498 H   0  0  0  0  0  0  0  0  0  0  0  0
    1.6908    0.8882   -1.2329 H   0  0  0  0  0  0  0  0  0  0  0  0
    4.1298   -0.8366    1.0075 H   0  0  0  0  0  0  0  0  0  0  0  0
    3.8530   -0.3736   -0.6757 H   0  0  0  0  0  0  0  0  0  0  0  0
   -1.9462    3.5339    0.6350 H   0  0  0  0  0  0  0  0  0  0  0  0
   -3.6701    1.7310    0.9710 H   0  0  0  0  0  0  0  0  0  0  0  0
   -3.0480   -0.5442    0.7611 H   0  0  0  0  0  0  0  0  0  0  0  0
   -0.5480   -0.8128    1.1896 H   0  0  0  0  0  0  0  0  0  0  0  0
  1  2  3  0
  2  3  1  0
  3  4  1  0
  4  5  1  0
  5  6  1  0
  6  7  1  0
  6  8  2  0
  5  9  1  0
  9 10  1  0
 10 11  2  0
 11 12  1  0
 12 13  2  0
 13 14  1  0
 14  3  1  0
 14  9  1  0
  3 15  1  0
  4 16  1  0
  4 17  1  0
  5 18  1  0
  7 19  1  0
  7 20  1  0
 11 21  1  0
 12 22  1  0
 13 23  1  0
 14 24  1  0
M  END
