
     RDKit          3D

 36 39  0  0  0  0  0  0  0  0999 V2000
    5.2370    2.4444   -5.2169 N   0  0  0  0  0  0  0  0  0  0  0  0
    4.4529    2.0178   -4.3339 C   0  0  0  0  0  0  0  0  0  0  0  0
    3.6103    1.5577   -3.3526 C   0  0  0  0  0  0  0  0  0  0  0  0
    3.8512    0.3507   -2.7162 C   0  0  0  0  0  0  0  0  0  0  0  0
    2.9660   -0.0853   -1.7609 C   0  0  0  0  0  0  0  0  0  0  0  0
    1.8542    0.5836   -1.3862 C   0  0  0  0  0  0  0  0  0  0  0  0
    0.8369    0.0658   -0.4646 C   0  0  0  0  0  0  0  0  0  0  0  0
   -0.0143    0.8860    0.2472 N   0  0  0  0  0  0  0  0  0  0  0  0
   -0.8856    0.1600    0.9434 C   0  0  0  0  0  0  0  0  0  0  0  0
   -1.9802    0.5753    1.8322 C   0  0  0  0  0  0  0  0  0  0  0  0
   -2.1631    0.0254    3.0616 C   0  0  0  0  0  0  0  0  0  0  0  0
   -3.2324    0.4402    3.8396 C   0  0  0  0  0  0  0  0  0  0  0  0
   -4.1071    1.3846    3.4108 C   0  0  0  0  0  0  0  0  0  0  0  0
   -3.9197    1.9508    2.1488 C   0  0  0  0  0  0  0  0  0  0  0  0
   -2.8551    1.5507    1.3505 C   0  0  0  0  0  0  0  0  0  0  0  0
   -0.5912   -1.1671    0.6737 C   0  0  0  0  0  0  0  0  0  0  0  0
   -1.1951   -2.3203    1.1130 C   0  0  0  0  0  0  0  0  0  0  0  0
   -0.7223   -3.5477    0.6663 C   0  0  0  0  0  0  0  0  0  0  0  0
    0.3298   -3.6089   -0.2011 C   0  0  0  0  0  0  0  0  0  0  0  0
    0.9023   -2.3964   -0.6120 C   0  0  0  0  0  0  0  0  0  0  0  0
    0.4728   -1.2022   -0.1977 N   0  0  0  0  0  0  0  0  0  0  0  0
    1.5782    1.8254   -2.0142 C   0  0  0  0  0  0  0  0  0  0  0  0
    2.4501    2.2559   -2.9551 C   0  0  0  0  0  0  0  0  0  0  0  0
    4.7338   -0.2458   -2.9724 H   0  0  0  0  0  0  0  0  0  0  0  0
    3.2510   -1.0172   -1.2602 H   0  0  0  0  0  0  0  0  0  0  0  0
   -1.4598   -0.7257    3.4213 H   0  0  0  0  0  0  0  0  0  0  0  0
   -3.3550   -0.0111    4.8077 H   0  0  0  0  0  0  0  0  0  0  0  0
   -4.9451    1.6968    4.0459 H   0  0  0  0  0  0  0  0  0  0  0  0
   -4.6040    2.6922    1.8129 H   0  0  0  0  0  0  0  0  0  0  0  0
   -2.7183    2.0045    0.3690 H   0  0  0  0  0  0  0  0  0  0  0  0
   -2.0409   -2.2723    1.7924 H   0  0  0  0  0  0  0  0  0  0  0  0
   -1.1857   -4.4666    1.0088 H   0  0  0  0  0  0  0  0  0  0  0  0
    0.7207   -4.5158   -0.5676 H   0  0  0  0  0  0  0  0  0  0  0  0
    1.7180   -2.4329   -1.3304 H   0  0  0  0  0  0  0  0  0  0  0  0
    0.6954    2.3560   -1.7126 H   0  0  0  0  0  0  0  0  0  0  0  0
    2.3146    3.1916   -3.4906 H   0  0  0  0  0  0  0  0  0  0  0  0
  1  2  3  0
  2  3  1  0
  3  4  2  0
  4  5  1  0
  5  6  2  0
  6  7  1  0
  7  8  2  0
  8  9  1  0
  9 10  1  0
 10 11  2  0
 11 12  1  0
 12 13  2  0
 13 14  1  0
 14 15  2  0
  9 16  2  0
 16 17  1  0
 17 18  2  0
 18 19  1  0
 19 20  2  0
 20 21  1  0
  6 22  1  0
 22 23  2  0
 23  3  1  0
 21  7  1  0
 15 10  1  0
 21 16  1  0
  4 24  1  0
  5 25  1  0
 11 26  1  0
 12 27  1  0
 13 28  1  0
 14 29  1  0
 15 30  1  0
 17 31  1  0
 18 32  1  0
 19 33  1  0
 20 34  1  0
 22 35  1  0
 23 36  1  0
M  END
