
     RDKit          3D

 41 43  0  0  0  0  0  0  0  0999 V2000
    6.4522    0.9744    2.8263 C   0  0  0  0  0  0  0  0  0  0  0  0
    5.6568   -0.1756    2.8970 O   0  0  0  0  0  0  0  0  0  0  0  0
    4.5786   -0.4135    2.0566 C   0  0  0  0  0  0  0  0  0  0  0  0
    4.1793    0.4564    1.0664 C   0  0  0  0  0  0  0  0  0  0  0  0
    3.0879    0.1621    0.2535 C   0  0  0  0  0  0  0  0  0  0  0  0
    2.3697   -1.0055    0.4090 C   0  0  0  0  0  0  0  0  0  0  0  0
    1.2475   -1.3068   -0.4277 N   0  0  0  0  0  0  0  0  0  0  0  0
    1.1537   -2.3690   -1.2305 N   0  0  0  0  0  0  0  0  0  0  0  0
   -0.0193   -2.3645   -1.8792 C   0  0  0  0  0  0  0  0  0  0  0  0
   -0.5033   -3.3367   -2.8353 C   0  0  0  0  0  0  0  0  0  0  0  0
   -0.8785   -4.1241   -3.5861 N   0  0  0  0  0  0  0  0  0  0  0  0
   -0.6810   -1.2434   -1.4547 C   0  0  0  0  0  0  0  0  0  0  0  0
   -1.9701   -0.8266   -1.8766 N   0  0  0  0  0  0  0  0  0  0  0  0
   -2.5301    0.3929   -1.3260 C   0  0  0  0  0  0  0  0  0  0  0  0
   -3.9043    0.6727   -1.8920 C   0  0  0  0  0  0  0  0  0  0  0  0
   -4.2739    2.0845   -1.4696 C   0  0  0  0  0  0  0  0  0  0  0  0
   -4.3856    2.1122    0.0186 C   0  0  0  0  0  0  0  0  0  0  0  0
   -3.9317    0.8606    0.6983 C   0  0  0  0  0  0  0  0  0  0  0  0
   -2.6202    0.3343    0.1759 C   0  0  0  0  0  0  0  0  0  0  0  0
    0.1292   -0.6368   -0.5756 N   0  0  0  0  0  0  0  0  0  0  0  0
    2.7787   -1.8694    1.4041 C   0  0  0  0  0  0  0  0  0  0  0  0
    3.8689   -1.5841    2.2222 C   0  0  0  0  0  0  0  0  0  0  0  0
    5.7924    1.8562    2.8748 H   0  0  0  0  0  0  0  0  0  0  0  0
    7.1205    0.9918    1.9434 H   0  0  0  0  0  0  0  0  0  0  0  0
    7.0914    1.0176    3.7422 H   0  0  0  0  0  0  0  0  0  0  0  0
    4.7397    1.3693    0.9436 H   0  0  0  0  0  0  0  0  0  0  0  0
    2.7912    0.8633   -0.5212 H   0  0  0  0  0  0  0  0  0  0  0  0
   -2.5121   -1.3687   -2.5609 H   0  0  0  0  0  0  0  0  0  0  0  0
   -1.8962    1.2678   -1.5827 H   0  0  0  0  0  0  0  0  0  0  0  0
   -4.6649   -0.0048   -1.4463 H   0  0  0  0  0  0  0  0  0  0  0  0
   -3.8740    0.6014   -3.0016 H   0  0  0  0  0  0  0  0  0  0  0  0
   -5.1648    2.4633   -1.9946 H   0  0  0  0  0  0  0  0  0  0  0  0
   -3.4210    2.7333   -1.8148 H   0  0  0  0  0  0  0  0  0  0  0  0
   -3.8895    3.0161    0.4315 H   0  0  0  0  0  0  0  0  0  0  0  0
   -5.4808    2.2412    0.2641 H   0  0  0  0  0  0  0  0  0  0  0  0
   -4.7049    0.0689    0.6259 H   0  0  0  0  0  0  0  0  0  0  0  0
   -3.7849    1.0923    1.7756 H   0  0  0  0  0  0  0  0  0  0  0  0
   -1.7480    0.8205    0.6650 H   0  0  0  0  0  0  0  0  0  0  0  0
   -2.5698   -0.7450    0.4580 H   0  0  0  0  0  0  0  0  0  0  0  0
    2.2118   -2.7839    1.5218 H   0  0  0  0  0  0  0  0  0  0  0  0
    4.1593   -2.2948    2.9977 H   0  0  0  0  0  0  0  0  0  0  0  0
  1  2  1  0
  2  3  1  0
  3  4  2  0
  4  5  1  0
  5  6  2  0
  6  7  1  0
  7  8  1  0
  8  9  2  0
  9 10  1  0
 10 11  3  0
  9 12  1  0
 12 13  1  0
 13 14  1  0
 14 15  1  0
 15 16  1  0
 16 17  1  0
 17 18  1  0
 18 19  1  0
 12 20  2  0
  6 21  1  0
 21 22  2  0
 22  3  1  0
 20  7  1  0
 19 14  1  0
  1 23  1  0
  1 24  1  0
  1 25  1  0
  4 26  1  0
  5 27  1  0
 13 28  1  0
 14 29  1  0
 15 30  1  0
 15 31  1  0
 16 32  1  0
 16 33  1  0
 17 34  1  0
 17 35  1  0
 18 36  1  0
 18 37  1  0
 19 38  1  0
 19 39  1  0
 21 40  1  0
 22 41  1  0
M  END
