
     RDKit          3D

 84 88  0  0  0  0  0  0  0  0999 V2000
   -9.6945    2.1702   -3.0031 C   0  0  0  0  0  0  0  0  0  0  0  0
   -9.2512    1.6312   -1.6475 C   0  0  0  0  0  0  0  0  0  0  0  0
   -7.9230    2.0563   -1.4113 O   0  0  0  0  0  0  0  0  0  0  0  0
   -7.2934    1.6976   -0.2326 C   0  0  0  0  0  0  0  0  0  0  0  0
   -7.9090    1.0047    0.6005 O   0  0  0  0  0  0  0  0  0  0  0  0
   -5.9062    2.1479    0.0062 C   0  0  0  0  0  0  0  0  0  0  0  0
   -5.4791    1.6541    1.3767 C   0  0  0  0  0  0  0  0  0  0  0  0
   -4.0871    2.0532    1.7200 C   0  0  0  0  0  0  0  0  0  0  0  0
   -3.0124    1.5138    0.8169 C   0  0  0  0  0  0  0  0  0  0  0  0
   -3.0181    0.0250    0.8886 C   0  0  0  0  0  0  0  0  0  0  0  0
   -2.0408   -0.6512    0.1052 N   0  0  0  0  0  0  0  0  0  0  0  0
   -2.3561   -1.0526   -1.1384 C   0  0  0  0  0  0  0  0  0  0  0  0
   -3.5796   -0.8427   -1.7377 C   0  0  0  0  0  0  0  0  0  0  0  0
   -3.8700   -1.2709   -3.0339 C   0  0  0  0  0  0  0  0  0  0  0  0
   -2.9288   -1.9246   -3.7624 C   0  0  0  0  0  0  0  0  0  0  0  0
   -1.7027   -2.1404   -3.1773 C   0  0  0  0  0  0  0  0  0  0  0  0
   -1.3975   -1.7242   -1.8964 C   0  0  0  0  0  0  0  0  0  0  0  0
   -0.1458   -1.9616   -1.3551 C   0  0  0  0  0  0  0  0  0  0  0  0
    0.7192   -2.5640   -2.0295 O   0  0  0  0  0  0  0  0  0  0  0  0
    0.1714   -1.5435   -0.0745 C   0  0  0  0  0  0  0  0  0  0  0  0
    1.4236   -1.7692    0.4637 C   0  0  0  0  0  0  0  0  0  0  0  0
    1.7790   -1.3577    1.7257 C   0  0  0  0  0  0  0  0  0  0  0  0
    0.7873   -0.6879    2.4537 C   0  0  0  0  0  0  0  0  0  0  0  0
   -0.4599   -0.4658    1.9111 C   0  0  0  0  0  0  0  0  0  0  0  0
   -0.8049   -0.8817    0.6447 C   0  0  0  0  0  0  0  0  0  0  0  0
    1.1119   -0.2953    3.7322 C   0  0  0  0  0  0  0  0  0  0  0  0
    0.2447    0.3112    4.4202 O   0  0  0  0  0  0  0  0  0  0  0  0
    2.3580   -0.5519    4.2678 C   0  0  0  0  0  0  0  0  0  0  0  0
    2.6430   -0.1438    5.5707 C   0  0  0  0  0  0  0  0  0  0  0  0
    3.8771   -0.4056    6.0997 C   0  0  0  0  0  0  0  0  0  0  0  0
    4.8418   -1.0610    5.3789 C   0  0  0  0  0  0  0  0  0  0  0  0
    4.5716   -1.4734    4.0795 C   0  0  0  0  0  0  0  0  0  0  0  0
    3.3261   -1.2108    3.5390 C   0  0  0  0  0  0  0  0  0  0  0  0
    2.9807   -1.5942    2.2574 N   0  0  0  0  0  0  0  0  0  0  0  0
    4.0578   -2.2505    1.5506 C   0  0  0  0  0  0  0  0  0  0  0  0
    5.0390   -1.2979    0.9233 C   0  0  0  0  0  0  0  0  0  0  0  0
    4.6129   -0.4332   -0.1827 C   0  0  0  0  0  0  0  0  0  0  0  0
    4.3271   -1.1045   -1.4986 C   0  0  0  0  0  0  0  0  0  0  0  0
    3.8632   -0.0280   -2.4878 C   0  0  0  0  0  0  0  0  0  0  0  0
    4.9140    0.9835   -2.7230 C   0  0  0  0  0  0  0  0  0  0  0  0
    4.5677    2.0988   -3.2105 O   0  0  0  0  0  0  0  0  0  0  0  0
    6.2393    0.7990   -2.4511 O   0  0  0  0  0  0  0  0  0  0  0  0
    7.2784    1.7327   -2.6577 C   0  0  0  0  0  0  0  0  0  0  0  0
    8.5584    1.0186   -2.1973 C   0  0  0  0  0  0  0  0  0  0  0  0
   -8.9094    1.9417   -3.7358 H   0  0  0  0  0  0  0  0  0  0  0  0
   -9.8324    3.2665   -2.8562 H   0  0  0  0  0  0  0  0  0  0  0  0
  -10.6676    1.7187   -3.3025 H   0  0  0  0  0  0  0  0  0  0  0  0
   -9.9533    2.0252   -0.9071 H   0  0  0  0  0  0  0  0  0  0  0  0
   -9.2721    0.5165   -1.6409 H   0  0  0  0  0  0  0  0  0  0  0  0
   -5.9278    3.2599    0.1006 H   0  0  0  0  0  0  0  0  0  0  0  0
   -5.2616    1.8224   -0.8056 H   0  0  0  0  0  0  0  0  0  0  0  0
   -5.6707    0.5557    1.4847 H   0  0  0  0  0  0  0  0  0  0  0  0
   -6.1569    2.1474    2.1058 H   0  0  0  0  0  0  0  0  0  0  0  0
   -4.0791    3.1785    1.7468 H   0  0  0  0  0  0  0  0  0  0  0  0
   -3.9105    1.7664    2.7902 H   0  0  0  0  0  0  0  0  0  0  0  0
   -3.0628    1.9224   -0.2032 H   0  0  0  0  0  0  0  0  0  0  0  0
   -2.0413    1.9108    1.2399 H   0  0  0  0  0  0  0  0  0  0  0  0
   -4.0472   -0.3430    0.6311 H   0  0  0  0  0  0  0  0  0  0  0  0
   -2.8580   -0.2391    1.9780 H   0  0  0  0  0  0  0  0  0  0  0  0
   -4.3491   -0.3221   -1.1957 H   0  0  0  0  0  0  0  0  0  0  0  0
   -4.8583   -1.0576   -3.4113 H   0  0  0  0  0  0  0  0  0  0  0  0
   -3.1826   -2.2446   -4.7633 H   0  0  0  0  0  0  0  0  0  0  0  0
   -0.9440   -2.6572   -3.7444 H   0  0  0  0  0  0  0  0  0  0  0  0
    2.0925   -2.3153   -0.1510 H   0  0  0  0  0  0  0  0  0  0  0  0
   -1.1385    0.0671    2.5419 H   0  0  0  0  0  0  0  0  0  0  0  0
    1.8449    0.3697    6.0990 H   0  0  0  0  0  0  0  0  0  0  0  0
    4.0913   -0.0856    7.1109 H   0  0  0  0  0  0  0  0  0  0  0  0
    5.8340   -1.2748    5.7998 H   0  0  0  0  0  0  0  0  0  0  0  0
    5.3172   -1.9968    3.5103 H   0  0  0  0  0  0  0  0  0  0  0  0
    4.5640   -3.0407    2.1540 H   0  0  0  0  0  0  0  0  0  0  0  0
    3.6212   -2.7867    0.6629 H   0  0  0  0  0  0  0  0  0  0  0  0
    5.9133   -1.9181    0.5192 H   0  0  0  0  0  0  0  0  0  0  0  0
    5.5653   -0.6602    1.6841 H   0  0  0  0  0  0  0  0  0  0  0  0
    3.6995    0.1818    0.0571 H   0  0  0  0  0  0  0  0  0  0  0  0
    5.4216    0.3345   -0.3823 H   0  0  0  0  0  0  0  0  0  0  0  0
    5.3556   -1.3969   -1.9146 H   0  0  0  0  0  0  0  0  0  0  0  0
    3.7019   -1.9645   -1.4754 H   0  0  0  0  0  0  0  0  0  0  0  0
    3.5891   -0.5657   -3.4364 H   0  0  0  0  0  0  0  0  0  0  0  0
    2.9769    0.4396   -2.0197 H   0  0  0  0  0  0  0  0  0  0  0  0
    7.1455    2.6111   -1.9550 H   0  0  0  0  0  0  0  0  0  0  0  0
    7.3712    2.0737   -3.7029 H   0  0  0  0  0  0  0  0  0  0  0  0
    8.4618   -0.0334   -2.5626 H   0  0  0  0  0  0  0  0  0  0  0  0
    8.7333    1.1080   -1.1250 H   0  0  0  0  0  0  0  0  0  0  0  0
    9.3906    1.4752   -2.7827 H   0  0  0  0  0  0  0  0  0  0  0  0
  1  2  1  0
  2  3  1  0
  3  4  1  0
  4  5  2  0
  4  6  1  0
  6  7  1  0
  7  8  1  0
  8  9  1  0
  9 10  1  0
 10 11  1  0
 11 12  1  0
 12 13  2  0
 13 14  1  0
 14 15  2  0
 15 16  1  0
 16 17  2  0
 17 18  1  0
 18 19  2  0
 18 20  1  0
 20 21  2  0
 21 22  1  0
 22 23  2  0
 23 24  1  0
 24 25  2  0
 23 26  1  0
 26 27  2  0
 26 28  1  0
 28 29  2  0
 29 30  1  0
 30 31  2  0
 31 32  1  0
 32 33  2  0
 33 34  1  0
 34 35  1  0
 35 36  1  0
 36 37  1  0
 37 38  1  0
 38 39  1  0
 39 40  1  0
 40 41  2  0
 40 42  1  0
 42 43  1  0
 43 44  1  0
 25 11  1  0
 33 28  1  0
 17 12  1  0
 25 20  1  0
 34 22  1  0
  1 45  1  0
  1 46  1  0
  1 47  1  0
  2 48  1  0
  2 49  1  0
  6 50  1  0
  6 51  1  0
  7 52  1  0
  7 53  1  0
  8 54  1  0
  8 55  1  0
  9 56  1  0
  9 57  1  0
 10 58  1  0
 10 59  1  0
 13 60  1  0
 14 61  1  0
 15 62  1  0
 16 63  1  0
 21 64  1  0
 24 65  1  0
 29 66  1  0
 30 67  1  0
 31 68  1  0
 32 69  1  0
 35 70  1  0
 35 71  1  0
 36 72  1  0
 36 73  1  0
 37 74  1  0
 37 75  1  0
 38 76  1  0
 38 77  1  0
 39 78  1  0
 39 79  1  0
 43 80  1  0
 43 81  1  0
 44 82  1  0
 44 83  1  0
 44 84  1  0
M  END
