
     RDKit          3D

 56 59  0  0  0  0  0  0  0  0999 V2000
    7.8042    1.5632    1.0979 C   0  0  0  0  0  0  0  0  0  0  0  0
    7.1897    0.8541    0.0060 N   0  0  0  0  0  0  0  0  0  0  0  0
    7.9580    0.6300   -1.2068 C   0  0  0  0  0  0  0  0  0  0  0  0
    5.8612    0.3459    0.0517 C   0  0  0  0  0  0  0  0  0  0  0  0
    4.8061    1.2272   -0.0114 C   0  0  0  0  0  0  0  0  0  0  0  0
    3.4808    0.7616    0.0071 C   0  0  0  0  0  0  0  0  0  0  0  0
    3.1835   -0.5608    0.0872 C   0  0  0  0  0  0  0  0  0  0  0  0
    1.8067   -1.0868    0.1113 C   0  0  0  0  0  0  0  0  0  0  0  0
    0.8066   -0.2630    0.1133 C   0  0  0  0  0  0  0  0  0  0  0  0
   -0.5751   -0.6530    0.1314 C   0  0  0  0  0  0  0  0  0  0  0  0
   -1.4676    0.3684    0.2092 N   0  0  0  0  0  0  0  0  0  0  0  0
   -2.8176    0.2098    0.2102 C   0  0  0  0  0  0  0  0  0  0  0  0
   -3.6501    1.3450    0.2456 N   0  0  0  0  0  0  0  0  0  0  0  0
   -3.1486    2.4669    1.0627 C   0  0  0  0  0  0  0  0  0  0  0  0
   -4.2088    3.4839    1.3259 C   0  0  0  0  0  0  0  0  0  0  0  0
   -4.9018    3.8539    0.2071 O   0  0  0  0  0  0  0  0  0  0  0  0
   -4.7379    3.0737   -0.9052 C   0  0  0  0  0  0  0  0  0  0  0  0
   -4.8775    1.5932   -0.4370 C   0  0  0  0  0  0  0  0  0  0  0  0
   -3.2585   -1.0807    0.1271 C   0  0  0  0  0  0  0  0  0  0  0  0
   -2.3781   -2.1409    0.0464 C   0  0  0  0  0  0  0  0  0  0  0  0
   -1.0488   -1.8915    0.0514 N   0  0  0  0  0  4  0  0  0  0  0  0
   -0.2056   -2.9788   -0.0378 O   0  0  0  0  0  1  0  0  0  0  0  0
   -2.8008   -3.5669   -0.0591 C   0  0  0  0  0  0  0  0  0  0  0  0
   -4.2199   -3.7653   -0.4545 C   0  0  0  0  0  0  0  0  0  0  0  0
   -4.8828   -2.4751   -0.9628 C   0  0  0  0  0  0  0  0  0  0  0  0
   -4.6959   -1.4670    0.1532 C   0  0  0  0  0  0  0  0  0  0  0  0
    4.2624   -1.4497    0.1518 C   0  0  0  0  0  0  0  0  0  0  0  0
    5.5670   -0.9970    0.1337 C   0  0  0  0  0  0  0  0  0  0  0  0
    8.5269    2.3411    0.7363 H   0  0  0  0  0  0  0  0  0  0  0  0
    8.2978    0.8888    1.8156 H   0  0  0  0  0  0  0  0  0  0  0  0
    6.9961    2.1409    1.6233 H   0  0  0  0  0  0  0  0  0  0  0  0
    8.8963    0.1209   -0.8909 H   0  0  0  0  0  0  0  0  0  0  0  0
    8.1882    1.6545   -1.6237 H   0  0  0  0  0  0  0  0  0  0  0  0
    7.4390    0.0453   -1.9664 H   0  0  0  0  0  0  0  0  0  0  0  0
    5.0271    2.2914   -0.0759 H   0  0  0  0  0  0  0  0  0  0  0  0
    2.7011    1.5193   -0.0525 H   0  0  0  0  0  0  0  0  0  0  0  0
    1.6787   -2.1767    0.1294 H   0  0  0  0  0  0  0  0  0  0  0  0
    1.0253    0.8057    0.1044 H   0  0  0  0  0  0  0  0  0  0  0  0
   -2.3163    2.9491    0.5145 H   0  0  0  0  0  0  0  0  0  0  0  0
   -2.7035    2.1036    2.0113 H   0  0  0  0  0  0  0  0  0  0  0  0
   -3.6593    4.4095    1.6765 H   0  0  0  0  0  0  0  0  0  0  0  0
   -4.8540    3.1837    2.1840 H   0  0  0  0  0  0  0  0  0  0  0  0
   -3.7502    3.1898   -1.4061 H   0  0  0  0  0  0  0  0  0  0  0  0
   -5.5492    3.2359   -1.6182 H   0  0  0  0  0  0  0  0  0  0  0  0
   -5.7789    1.6383    0.2064 H   0  0  0  0  0  0  0  0  0  0  0  0
   -5.0134    0.9843   -1.3613 H   0  0  0  0  0  0  0  0  0  0  0  0
   -2.1574   -3.9831   -0.8928 H   0  0  0  0  0  0  0  0  0  0  0  0
   -2.5817   -4.1594    0.8415 H   0  0  0  0  0  0  0  0  0  0  0  0
   -4.8214   -4.0657    0.4384 H   0  0  0  0  0  0  0  0  0  0  0  0
   -4.2999   -4.5877   -1.1788 H   0  0  0  0  0  0  0  0  0  0  0  0
   -4.3787   -2.2107   -1.8932 H   0  0  0  0  0  0  0  0  0  0  0  0
   -5.9458   -2.7264   -1.1531 H   0  0  0  0  0  0  0  0  0  0  0  0
   -5.4163   -0.6783    0.2048 H   0  0  0  0  0  0  0  0  0  0  0  0
   -4.7826   -2.0858    1.1111 H   0  0  0  0  0  0  0  0  0  0  0  0
    4.0169   -2.5147    0.2166 H   0  0  0  0  0  0  0  0  0  0  0  0
    6.3644   -1.7137    0.1853 H   0  0  0  0  0  0  0  0  0  0  0  0
  1  2  1  0
  2  3  1  0
  2  4  1  0
  4  5  2  0
  5  6  1  0
  6  7  2  0
  7  8  1  0
  8  9  2  0
  9 10  1  0
 10 11  2  0
 11 12  1  0
 12 13  1  0
 13 14  1  0
 14 15  1  0
 15 16  1  0
 16 17  1  0
 17 18  1  0
 12 19  2  0
 19 20  1  0
 20 21  2  0
 21 22  1  0
 20 23  1  0
 23 24  1  0
 24 25  1  0
 25 26  1  0
  7 27  1  0
 27 28  2  0
 28  4  1  0
 21 10  1  0
 18 13  1  0
 26 19  1  0
  1 29  1  0
  1 30  1  0
  1 31  1  0
  3 32  1  0
  3 33  1  0
  3 34  1  0
  5 35  1  0
  6 36  1  0
  8 37  1  0
  9 38  1  0
 14 39  1  0
 14 40  1  0
 15 41  1  0
 15 42  1  0
 17 43  1  0
 17 44  1  0
 18 45  1  0
 18 46  1  0
 23 47  1  0
 23 48  1  0
 24 49  1  0
 24 50  1  0
 25 51  1  0
 25 52  1  0
 26 53  1  0
 26 54  1  0
 27 55  1  0
 28 56  1  0
M  CHG  2  21   1  22  -1
M  END
