
     RDKit          3D

 46 50  0  0  0  0  0  0  0  0999 V2000
    6.9116    2.3997   -2.2776 C   0  0  0  0  0  0  0  0  0  0  0  0
    7.0840    1.2716   -1.4505 O   0  0  0  0  0  0  0  0  0  0  0  0
    5.9637    0.6436   -0.8916 C   0  0  0  0  0  0  0  0  0  0  0  0
    6.1477   -0.4648   -0.0801 C   0  0  0  0  0  0  0  0  0  0  0  0
    5.0400   -1.0716    0.4619 C   0  0  0  0  0  0  0  0  0  0  0  0
    3.7343   -0.6243    0.2342 C   0  0  0  0  0  0  0  0  0  0  0  0
    2.6327   -1.3510    0.8652 C   0  0  0  0  0  0  0  0  0  0  0  0
    2.8509   -2.3522    1.5939 O   0  0  0  0  0  3  0  0  0  0  0  0
    1.8196   -3.1627    2.2817 B   0  0  0  0  0  4  0  0  0  0  0  0
    1.9754   -4.5593    1.8773 F   0  0  0  0  0  0  0  0  0  0  0  0
    2.0917   -3.1467    3.7306 F   0  0  0  0  0  0  0  0  0  0  0  0
    0.4668   -2.6556    2.0132 O   0  0  0  0  0  0  0  0  0  0  0  0
    0.2243   -1.5427    1.2032 C   0  0  0  0  0  0  0  0  0  0  0  0
   -1.1713   -1.1099    0.9935 C   0  0  0  0  0  0  0  0  0  0  0  0
   -2.1905   -1.8245    1.6088 C   0  0  0  0  0  0  0  0  0  0  0  0
   -3.4895   -1.4412    1.4281 C   0  0  0  0  0  0  0  0  0  0  0  0
   -3.8276   -0.3591    0.6488 C   0  0  0  0  0  0  0  0  0  0  0  0
   -2.8370    0.3626    0.0305 C   0  0  0  0  0  0  0  0  0  0  0  0
   -1.4997   -0.0329    0.2171 C   0  0  0  0  0  0  0  0  0  0  0  0
   -3.4332    1.4672   -0.7448 C   0  0  0  0  0  0  0  0  0  0  0  0
   -4.8926    1.3396   -0.5315 C   0  0  0  0  0  0  0  0  0  0  0  0
   -5.9586    2.1050   -1.0158 C   0  0  0  0  0  0  0  0  0  0  0  0
   -7.2498    1.7888   -0.6755 C   0  0  0  0  0  0  0  0  0  0  0  0
   -7.4635    0.7076    0.1478 C   0  0  0  0  0  0  0  0  0  0  0  0
   -6.4159   -0.0472    0.6257 C   0  0  0  0  0  0  0  0  0  0  0  0
   -5.0955    0.2603    0.2896 C   0  0  0  0  0  0  0  0  0  0  0  0
    1.2569   -0.9282    0.6614 C   0  0  0  0  0  0  0  0  0  0  0  0
    3.5969    0.4713   -0.5715 C   0  0  0  0  0  0  0  0  0  0  0  0
    4.6959    1.1177   -1.1424 C   0  0  0  0  0  0  0  0  0  0  0  0
    6.4976    2.0910   -3.2746 H   0  0  0  0  0  0  0  0  0  0  0  0
    6.2585    3.1643   -1.7971 H   0  0  0  0  0  0  0  0  0  0  0  0
    7.9072    2.8763   -2.3906 H   0  0  0  0  0  0  0  0  0  0  0  0
    7.1606   -0.7981    0.0864 H   0  0  0  0  0  0  0  0  0  0  0  0
    5.1759   -1.9424    1.1002 H   0  0  0  0  0  0  0  0  0  0  0  0
   -1.9117   -2.6674    2.2146 H   0  0  0  0  0  0  0  0  0  0  0  0
   -4.2791   -1.9930    1.9034 H   0  0  0  0  0  0  0  0  0  0  0  0
   -0.7362    0.5663   -0.2914 H   0  0  0  0  0  0  0  0  0  0  0  0
   -3.2505    1.2955   -1.8448 H   0  0  0  0  0  0  0  0  0  0  0  0
   -3.0552    2.4654   -0.4354 H   0  0  0  0  0  0  0  0  0  0  0  0
   -5.7823    2.9553   -1.6641 H   0  0  0  0  0  0  0  0  0  0  0  0
   -8.1025    2.3776   -1.0455 H   0  0  0  0  0  0  0  0  0  0  0  0
   -8.4816    0.4631    0.4125 H   0  0  0  0  0  0  0  0  0  0  0  0
   -6.5540   -0.9025    1.2746 H   0  0  0  0  0  0  0  0  0  0  0  0
    1.0662   -0.0570    0.0273 H   0  0  0  0  0  0  0  0  0  0  0  0
    2.5985    0.8541   -0.7760 H   0  0  0  0  0  0  0  0  0  0  0  0
    4.5211    1.9903   -1.7788 H   0  0  0  0  0  0  0  0  0  0  0  0
  1  2  1  0
  2  3  1  0
  3  4  2  0
  4  5  1  0
  5  6  2  0
  6  7  1  0
  7  8  2  0
  8  9  1  0
  9 10  1  0
  9 11  1  0
  9 12  1  0
 12 13  1  0
 13 14  1  0
 14 15  2  0
 15 16  1  0
 16 17  2  0
 17 18  1  0
 18 19  2  0
 18 20  1  0
 20 21  1  0
 21 22  2  0
 22 23  1  0
 23 24  2  0
 24 25  1  0
 25 26  2  0
 13 27  2  0
  6 28  1  0
 28 29  2  0
 29  3  1  0
 27  7  1  0
 19 14  1  0
 26 21  1  0
 26 17  1  0
  1 30  1  0
  1 31  1  0
  1 32  1  0
  4 33  1  0
  5 34  1  0
 15 35  1  0
 16 36  1  0
 19 37  1  0
 20 38  1  0
 20 39  1  0
 22 40  1  0
 23 41  1  0
 24 42  1  0
 25 43  1  0
 27 44  1  0
 28 45  1  0
 29 46  1  0
M  CHG  2   8   1   9  -1
M  END
