
     RDKit          3D

100105  0  0  0  0  0  0  0  0999 V2000
  -13.4207    0.0343    4.0458 C   0  0  0  0  0  0  0  0  0  0  0  0
  -14.8615    0.2701    3.6975 C   0  0  0  0  0  0  0  0  0  0  0  0
  -15.2385   -0.5861    2.4887 C   0  0  0  0  0  0  0  0  0  0  0  0
  -14.3162   -0.1313    1.3680 C   0  0  0  0  0  0  0  0  0  0  0  0
  -14.6011   -0.9007    0.1167 C   0  0  0  0  0  0  0  0  0  0  0  0
  -13.6920   -0.4110   -0.9742 C   0  0  0  0  0  0  0  0  0  0  0  0
  -12.2279   -0.6008   -0.6624 C   0  0  0  0  0  0  0  0  0  0  0  0
  -11.4558   -0.0200   -1.8463 C   0  0  0  0  0  0  0  0  0  0  0  0
  -10.0763   -0.1112   -1.7232 O   0  0  0  0  0  0  0  0  0  0  0  0
   -9.2979   -1.2311   -1.6325 C   0  0  0  0  0  0  0  0  0  0  0  0
   -9.8543   -2.3470   -1.6612 O   0  0  0  0  0  0  0  0  0  0  0  0
   -7.8405   -1.1754   -1.5063 C   0  0  0  0  0  0  0  0  0  0  0  0
   -7.1985    0.0525   -1.4035 C   0  0  0  0  0  0  0  0  0  0  0  0
   -5.8316    0.1739   -1.3109 C   0  0  0  0  0  0  0  0  0  0  0  0
   -5.0240   -0.9685   -1.3181 C   0  0  0  0  0  0  0  0  0  0  0  0
   -3.5748   -0.7976   -1.2284 C   0  0  0  0  0  0  0  0  0  0  0  0
   -2.7154   -1.6751   -1.8418 C   0  0  0  0  0  0  0  0  0  0  0  0
   -1.3538   -1.4854   -1.7571 C   0  0  0  0  0  0  0  0  0  0  0  0
   -0.4626   -2.3525   -2.3784 C   0  0  0  0  0  0  0  0  0  0  0  0
    0.9072   -2.1499   -2.2989 C   0  0  0  0  0  0  0  0  0  0  0  0
    1.4446   -1.0878   -1.6051 C   0  0  0  0  0  0  0  0  0  0  0  0
    2.8154   -0.8851   -1.5321 C   0  0  0  0  0  0  0  0  0  0  0  0
    3.3534    0.1721   -0.8467 C   0  0  0  0  0  0  0  0  0  0  0  0
    4.7954    0.3533   -0.8264 C   0  0  0  0  0  0  0  0  0  0  0  0
    5.3955    0.9151    0.2728 C   0  0  0  0  0  0  0  0  0  0  0  0
    6.7774    1.0999    0.2583 C   0  0  0  0  0  0  0  0  0  0  0  0
    7.5451    0.7366   -0.8195 C   0  0  0  0  0  0  0  0  0  0  0  0
    8.9812    0.9171   -0.8828 C   0  0  0  0  0  0  0  0  0  0  0  0
    9.6031    0.5655   -1.9377 O   0  0  0  0  0  0  0  0  0  0  0  0
    9.7551    1.4512    0.1263 O   0  0  0  0  0  0  0  0  0  0  0  0
   11.1639    1.6312    0.0569 C   0  0  0  0  0  0  0  0  0  0  0  0
   11.9229    0.3697   -0.1607 C   0  0  0  0  0  0  0  0  0  0  0  0
   13.3960    0.6529   -0.2461 C   0  0  0  0  0  0  0  0  0  0  0  0
   13.9009    1.2814    1.0194 C   0  0  0  0  0  0  0  0  0  0  0  0
   13.6982    0.4326    2.2250 C   0  0  0  0  0  0  0  0  0  0  0  0
   14.3830   -0.8707    2.2023 C   0  0  0  0  0  0  0  0  0  0  0  0
   15.8600   -0.9224    2.1854 C   0  0  0  0  0  0  0  0  0  0  0  0
   16.5974   -0.3112    1.0597 C   0  0  0  0  0  0  0  0  0  0  0  0
    6.8948    0.1787   -1.8925 C   0  0  0  0  0  0  0  0  0  0  0  0
    5.5496   -0.0296   -1.9436 C   0  0  0  0  0  0  0  0  0  0  0  0
    2.4774    1.0320   -0.2282 C   0  0  0  0  0  0  0  0  0  0  0  0
    1.1054    0.8547   -0.2849 C   0  0  0  0  0  0  0  0  0  0  0  0
    0.2306    1.7294    0.3320 C   0  0  0  0  0  0  0  0  0  0  0  0
   -1.1435    1.5388    0.2554 C   0  0  0  0  0  0  0  0  0  0  0  0
   -1.6527    0.4665   -0.4407 C   0  0  0  0  0  0  0  0  0  0  0  0
   -3.0161    0.2679   -0.5316 C   0  0  0  0  0  0  0  0  0  0  0  0
   -0.8063   -0.4297   -1.0674 C   0  0  0  0  0  0  0  0  0  0  0  0
    0.5752   -0.2155   -0.9800 C   0  0  0  0  0  0  0  0  0  0  0  0
   -5.6604   -2.1782   -1.4189 C   0  0  0  0  0  0  0  0  0  0  0  0
   -7.0505   -2.2977   -1.5124 C   0  0  0  0  0  0  0  0  0  0  0  0
  -12.7620    0.7155    3.4800 H   0  0  0  0  0  0  0  0  0  0  0  0
  -13.1160   -1.0206    3.8196 H   0  0  0  0  0  0  0  0  0  0  0  0
  -13.2812    0.1157    5.1615 H   0  0  0  0  0  0  0  0  0  0  0  0
  -14.9896    1.3377    3.3575 H   0  0  0  0  0  0  0  0  0  0  0  0
  -15.5282    0.0319    4.5280 H   0  0  0  0  0  0  0  0  0  0  0  0
  -16.2725   -0.3360    2.1798 H   0  0  0  0  0  0  0  0  0  0  0  0
  -15.0769   -1.6411    2.7218 H   0  0  0  0  0  0  0  0  0  0  0  0
  -13.2985   -0.2472    1.7551 H   0  0  0  0  0  0  0  0  0  0  0  0
  -14.4779    0.9443    1.1675 H   0  0  0  0  0  0  0  0  0  0  0  0
  -15.6393   -0.7246   -0.2330 H   0  0  0  0  0  0  0  0  0  0  0  0
  -14.4294   -2.0014    0.2596 H   0  0  0  0  0  0  0  0  0  0  0  0
  -13.8725    0.6905   -1.1276 H   0  0  0  0  0  0  0  0  0  0  0  0
  -13.9347   -0.9186   -1.9379 H   0  0  0  0  0  0  0  0  0  0  0  0
  -11.9801   -1.6905   -0.5242 H   0  0  0  0  0  0  0  0  0  0  0  0
  -11.9833   -0.0853    0.2664 H   0  0  0  0  0  0  0  0  0  0  0  0
  -11.7027    1.0834   -1.8235 H   0  0  0  0  0  0  0  0  0  0  0  0
  -11.8637   -0.3950   -2.8041 H   0  0  0  0  0  0  0  0  0  0  0  0
   -7.8191    0.9315   -1.3997 H   0  0  0  0  0  0  0  0  0  0  0  0
   -5.3262    1.1277   -1.2290 H   0  0  0  0  0  0  0  0  0  0  0  0
   -3.0707   -2.5419   -2.4114 H   0  0  0  0  0  0  0  0  0  0  0  0
   -0.8879   -3.1934   -2.9263 H   0  0  0  0  0  0  0  0  0  0  0  0
    1.6005   -2.8448   -2.7965 H   0  0  0  0  0  0  0  0  0  0  0  0
    3.4553   -1.5924   -2.0378 H   0  0  0  0  0  0  0  0  0  0  0  0
    4.7762    1.1959    1.1145 H   0  0  0  0  0  0  0  0  0  0  0  0
    7.2424    1.5402    1.1213 H   0  0  0  0  0  0  0  0  0  0  0  0
   11.4300    1.9955    1.0958 H   0  0  0  0  0  0  0  0  0  0  0  0
   11.4787    2.4186   -0.6310 H   0  0  0  0  0  0  0  0  0  0  0  0
   11.6652   -0.4087    0.6027 H   0  0  0  0  0  0  0  0  0  0  0  0
   11.6502   -0.1249   -1.1341 H   0  0  0  0  0  0  0  0  0  0  0  0
   13.8782   -0.3185   -0.4851 H   0  0  0  0  0  0  0  0  0  0  0  0
   13.5406    1.3154   -1.1318 H   0  0  0  0  0  0  0  0  0  0  0  0
   14.9664    1.5736    0.8477 H   0  0  0  0  0  0  0  0  0  0  0  0
   13.3722    2.2747    1.1498 H   0  0  0  0  0  0  0  0  0  0  0  0
   13.8805    1.0088    3.1761 H   0  0  0  0  0  0  0  0  0  0  0  0
   12.5821    0.2350    2.2781 H   0  0  0  0  0  0  0  0  0  0  0  0
   13.9283   -1.4891    1.3767 H   0  0  0  0  0  0  0  0  0  0  0  0
   14.0632   -1.4428    3.1341 H   0  0  0  0  0  0  0  0  0  0  0  0
   16.3005   -0.5773    3.1804 H   0  0  0  0  0  0  0  0  0  0  0  0
   16.1267   -2.0340    2.2127 H   0  0  0  0  0  0  0  0  0  0  0  0
   17.5285   -0.9652    0.9041 H   0  0  0  0  0  0  0  0  0  0  0  0
   16.1201   -0.3293    0.0742 H   0  0  0  0  0  0  0  0  0  0  0  0
   17.0611    0.6763    1.3101 H   0  0  0  0  0  0  0  0  0  0  0  0
    7.4618   -0.1292   -2.7811 H   0  0  0  0  0  0  0  0  0  0  0  0
    5.0366   -0.4686   -2.7866 H   0  0  0  0  0  0  0  0  0  0  0  0
    2.8494    1.8812    0.3245 H   0  0  0  0  0  0  0  0  0  0  0  0
    0.6076    2.5776    0.8859 H   0  0  0  0  0  0  0  0  0  0  0  0
   -1.7842    2.2649    0.7625 H   0  0  0  0  0  0  0  0  0  0  0  0
   -3.6789    0.9695   -0.0410 H   0  0  0  0  0  0  0  0  0  0  0  0
   -5.0599   -3.0681   -1.4262 H   0  0  0  0  0  0  0  0  0  0  0  0
   -7.5229   -3.2718   -1.5902 H   0  0  0  0  0  0  0  0  0  0  0  0
  1  2  1  0
  2  3  1  0
  3  4  1  0
  4  5  1  0
  5  6  1  0
  6  7  1  0
  7  8  1  0
  8  9  1  0
  9 10  1  0
 10 11  2  0
 10 12  1  0
 12 13  2  0
 13 14  1  0
 14 15  2  0
 15 16  1  0
 16 17  2  0
 17 18  1  0
 18 19  2  0
 19 20  1  0
 20 21  2  0
 21 22  1  0
 22 23  2  0
 23 24  1  0
 24 25  2  0
 25 26  1  0
 26 27  2  0
 27 28  1  0
 28 29  2  0
 28 30  1  0
 30 31  1  0
 31 32  1  0
 32 33  1  0
 33 34  1  0
 34 35  1  0
 35 36  1  0
 36 37  1  0
 37 38  1  0
 27 39  1  0
 39 40  2  0
 23 41  1  0
 41 42  2  0
 42 43  1  0
 43 44  2  0
 44 45  1  0
 45 46  2  0
 45 47  1  0
 47 48  2  0
 15 49  1  0
 49 50  2  0
 50 12  1  0
 46 16  1  0
 47 18  1  0
 48 21  1  0
 40 24  1  0
 48 42  1  0
  1 51  1  0
  1 52  1  0
  1 53  1  0
  2 54  1  0
  2 55  1  0
  3 56  1  0
  3 57  1  0
  4 58  1  0
  4 59  1  0
  5 60  1  0
  5 61  1  0
  6 62  1  0
  6 63  1  0
  7 64  1  0
  7 65  1  0
  8 66  1  0
  8 67  1  0
 13 68  1  0
 14 69  1  0
 17 70  1  0
 19 71  1  0
 20 72  1  0
 22 73  1  0
 25 74  1  0
 26 75  1  0
 31 76  1  0
 31 77  1  0
 32 78  1  0
 32 79  1  0
 33 80  1  0
 33 81  1  0
 34 82  1  0
 34 83  1  0
 35 84  1  0
 35 85  1  0
 36 86  1  0
 36 87  1  0
 37 88  1  0
 37 89  1  0
 38 90  1  0
 38 91  1  0
 38 92  1  0
 39 93  1  0
 40 94  1  0
 41 95  1  0
 43 96  1  0
 44 97  1  0
 46 98  1  0
 49 99  1  0
 50100  1  0
M  END
