
     RDKit          3D

 40 41  0  0  0  0  0  0  0  0999 V2000
    8.0835   -0.1298   -0.8714 C   0  0  0  0  0  0  0  0  0  0  0  0
    6.5960   -0.0502   -0.7926 C   0  0  0  0  0  0  0  0  0  0  0  0
    5.9466   -0.7993    0.1807 C   0  0  0  0  0  0  0  0  0  0  0  0
    4.5827   -0.7235    0.2496 C   0  0  0  0  0  0  0  0  0  0  0  0
    3.8265    0.0562   -0.5956 C   0  0  0  0  0  0  0  0  0  0  0  0
    2.3595    0.1113   -0.4898 C   0  0  0  0  0  0  0  0  0  0  0  0
    1.7416   -0.5673    0.3952 N   0  0  0  0  0  0  0  0  0  0  0  0
    0.3058   -0.5635    0.5589 C   0  0  0  0  0  0  0  0  0  0  0  0
   -0.1823    0.6918    1.2485 C   0  0  0  0  0  0  0  0  0  0  0  0
   -1.6448    0.5585    1.3460 N   0  0  0  0  0  0  0  0  0  0  0  0
   -2.3804    0.4167    0.3157 C   0  0  0  0  0  0  0  0  0  0  0  0
   -3.8349    0.2811    0.3708 C   0  0  0  0  0  0  0  0  0  0  0  0
   -4.5457    0.1320   -0.7997 C   0  0  0  0  0  0  0  0  0  0  0  0
   -5.9168   -0.0017   -0.8342 C   0  0  0  0  0  0  0  0  0  0  0  0
   -6.6040    0.0155    0.3642 C   0  0  0  0  0  0  0  0  0  0  0  0
   -8.0988   -0.1279    0.3615 C   0  0  0  0  0  0  0  0  0  0  0  0
   -5.9012    0.1644    1.5431 C   0  0  0  0  0  0  0  0  0  0  0  0
   -4.5295    0.2971    1.5615 C   0  0  0  0  0  0  0  0  0  0  0  0
    4.4852    0.7881   -1.5494 C   0  0  0  0  0  0  0  0  0  0  0  0
    5.8603    0.7406   -1.6536 C   0  0  0  0  0  0  0  0  0  0  0  0
    8.3866    0.4166   -1.8043 H   0  0  0  0  0  0  0  0  0  0  0  0
    8.3556   -1.1952   -0.8978 H   0  0  0  0  0  0  0  0  0  0  0  0
    8.4815    0.3962    0.0366 H   0  0  0  0  0  0  0  0  0  0  0  0
    6.5348   -1.4255    0.8616 H   0  0  0  0  0  0  0  0  0  0  0  0
    4.0366   -1.3013    1.0055 H   0  0  0  0  0  0  0  0  0  0  0  0
    1.8105    0.7246   -1.1601 H   0  0  0  0  0  0  0  0  0  0  0  0
    0.0540   -1.4131    1.2297 H   0  0  0  0  0  0  0  0  0  0  0  0
   -0.2259   -0.7622   -0.3956 H   0  0  0  0  0  0  0  0  0  0  0  0
    0.0449    1.6091    0.7074 H   0  0  0  0  0  0  0  0  0  0  0  0
    0.2806    0.7263    2.2344 H   0  0  0  0  0  0  0  0  0  0  0  0
   -1.8853    0.3977   -0.6438 H   0  0  0  0  0  0  0  0  0  0  0  0
   -4.0270    0.1157   -1.7526 H   0  0  0  0  0  0  0  0  0  0  0  0
   -6.4753   -0.1190   -1.7562 H   0  0  0  0  0  0  0  0  0  0  0  0
   -8.5439    0.4904   -0.4511 H   0  0  0  0  0  0  0  0  0  0  0  0
   -8.5063    0.2638    1.3199 H   0  0  0  0  0  0  0  0  0  0  0  0
   -8.4226   -1.1605    0.2217 H   0  0  0  0  0  0  0  0  0  0  0  0
   -6.4226    0.1802    2.4919 H   0  0  0  0  0  0  0  0  0  0  0  0
   -3.9698    0.4136    2.4701 H   0  0  0  0  0  0  0  0  0  0  0  0
    3.9276    1.4150   -2.2348 H   0  0  0  0  0  0  0  0  0  0  0  0
    6.4167    1.3028   -2.3921 H   0  0  0  0  0  0  0  0  0  0  0  0
  1  2  1  0
  2  3  2  0
  3  4  1  0
  4  5  2  0
  5  6  1  0
  6  7  2  0
  7  8  1  0
  8  9  1  0
  9 10  1  0
 10 11  2  0
 11 12  1  0
 12 13  2  0
 13 14  1  0
 14 15  2  0
 15 16  1  0
 15 17  1  0
 17 18  2  0
  5 19  1  0
 19 20  2  0
 20  2  1  0
 18 12  1  0
  1 21  1  0
  1 22  1  0
  1 23  1  0
  3 24  1  0
  4 25  1  0
  6 26  1  0
  8 27  1  0
  8 28  1  0
  9 29  1  0
  9 30  1  0
 11 31  1  0
 13 32  1  0
 14 33  1  0
 16 34  1  0
 16 35  1  0
 16 36  1  0
 17 37  1  0
 18 38  1  0
 19 39  1  0
 20 40  1  0
M  END
