
     RDKit          3D

 38 40  0  0  0  0  0  0  0  0999 V2000
   -6.0907   -1.1802    1.0550 C   0  0  0  0  0  0  0  0  0  0  0  0
   -5.4328   -0.2731    0.1484 N   0  0  0  0  0  0  0  0  0  0  0  0
   -6.2324    0.6298   -0.6408 C   0  0  0  0  0  0  0  0  0  0  0  0
   -4.0138   -0.2774    0.0703 C   0  0  0  0  0  0  0  0  0  0  0  0
   -3.3157   -1.3422   -0.4382 C   0  0  0  0  0  0  0  0  0  0  0  0
   -1.9283   -1.3030   -0.4952 C   0  0  0  0  0  0  0  0  0  0  0  0
   -1.1938   -0.2225   -0.0560 C   0  0  0  0  0  0  0  0  0  0  0  0
    0.2660   -0.2676   -0.1298 C   0  0  0  0  0  0  0  0  0  0  0  0
    1.0417    0.7156    0.2692 C   0  0  0  0  0  0  0  0  0  0  0  0
    2.4990    0.7135    0.2154 C   0  0  0  0  0  0  0  0  0  0  0  0
    3.1391    1.8625    0.6561 C   0  0  0  0  0  0  0  0  0  0  0  0
    4.4708    1.9377    0.6542 N   0  0  0  0  0  0  0  0  0  0  0  0
    5.2066    0.9117    0.2302 C   0  0  0  0  0  0  0  0  0  0  0  0
    6.5943    1.0316    0.2485 C   0  0  0  0  0  0  0  0  0  0  0  0
    7.3792   -0.0074   -0.1781 C   0  0  0  0  0  0  0  0  0  0  0  0
    6.7526   -1.1547   -0.6185 C   0  0  0  0  0  0  0  0  0  0  0  0
    5.3790   -1.2774   -0.6389 C   0  0  0  0  0  0  0  0  0  0  0  0
    4.5645   -0.2301   -0.2081 C   0  0  0  0  0  0  0  0  0  0  0  0
    3.2096   -0.3409   -0.2204 N   0  0  0  0  0  0  0  0  0  0  0  0
   -1.9113    0.8251    0.4445 C   0  0  0  0  0  0  0  0  0  0  0  0
   -3.2925    0.8287    0.5202 C   0  0  0  0  0  0  0  0  0  0  0  0
   -6.5585   -0.6601    1.9134 H   0  0  0  0  0  0  0  0  0  0  0  0
   -5.3977   -1.9355    1.4864 H   0  0  0  0  0  0  0  0  0  0  0  0
   -6.8620   -1.7942    0.5027 H   0  0  0  0  0  0  0  0  0  0  0  0
   -5.7785    0.9062   -1.6021 H   0  0  0  0  0  0  0  0  0  0  0  0
   -6.3100    1.5703   -0.0117 H   0  0  0  0  0  0  0  0  0  0  0  0
   -7.2764    0.2681   -0.7318 H   0  0  0  0  0  0  0  0  0  0  0  0
   -3.8860   -2.2110   -0.7903 H   0  0  0  0  0  0  0  0  0  0  0  0
   -1.4465   -2.1609   -0.8957 H   0  0  0  0  0  0  0  0  0  0  0  0
    0.7481   -1.1391   -0.5288 H   0  0  0  0  0  0  0  0  0  0  0  0
    0.5502    1.5963    0.6731 H   0  0  0  0  0  0  0  0  0  0  0  0
    2.5934    2.7375    1.0147 H   0  0  0  0  0  0  0  0  0  0  0  0
    7.0949    1.9326    0.5934 H   0  0  0  0  0  0  0  0  0  0  0  0
    8.4385    0.0935   -0.1573 H   0  0  0  0  0  0  0  0  0  0  0  0
    7.3795   -1.9587   -0.9488 H   0  0  0  0  0  0  0  0  0  0  0  0
    4.8957   -2.1781   -0.9836 H   0  0  0  0  0  0  0  0  0  0  0  0
   -1.4104    1.7046    0.8022 H   0  0  0  0  0  0  0  0  0  0  0  0
   -3.8652    1.6486    0.9069 H   0  0  0  0  0  0  0  0  0  0  0  0
  1  2  1  0
  2  3  1  0
  2  4  1  0
  4  5  2  0
  5  6  1  0
  6  7  2  0
  7  8  1  0
  8  9  2  0
  9 10  1  0
 10 11  2  0
 11 12  1  0
 12 13  2  0
 13 14  1  0
 14 15  2  0
 15 16  1  0
 16 17  2  0
 17 18  1  0
 18 19  2  0
  7 20  1  0
 20 21  2  0
 21  4  1  0
 19 10  1  0
 18 13  1  0
  1 22  1  0
  1 23  1  0
  1 24  1  0
  3 25  1  0
  3 26  1  0
  3 27  1  0
  5 28  1  0
  6 29  1  0
  8 30  1  0
  9 31  1  0
 11 32  1  0
 14 33  1  0
 15 34  1  0
 16 35  1  0
 17 36  1  0
 20 37  1  0
 21 38  1  0
M  END
