
     RDKit          3D

 28 29  0  0  0  0  0  0  0  0999 V2000
    5.9775    3.2722   -1.0362 C   0  0  0  0  0  3  0  0  0  0  0  0
    4.9527    2.7303   -0.8710 N   0  0  0  0  0  4  0  0  0  0  0  0
    3.7539    2.0819   -0.6595 C   0  0  0  0  0  0  0  0  0  0  0  0
    3.1819    1.2962   -1.6581 C   0  0  0  0  0  0  0  0  0  0  0  0
    1.9843    0.6566   -1.4334 C   0  0  0  0  0  0  0  0  0  0  0  0
    1.2919    0.7477   -0.2420 C   0  0  0  0  0  0  0  0  0  0  0  0
    0.0170    0.0547   -0.0354 C   0  0  0  0  0  0  0  0  0  0  0  0
   -0.8631   -0.1591   -1.0744 C   0  0  0  0  0  0  0  0  0  0  0  0
   -2.0563   -0.8102   -0.8726 C   0  0  0  0  0  0  0  0  0  0  0  0
   -2.4303   -1.2800    0.3749 C   0  0  0  0  0  0  0  0  0  0  0  0
   -3.6663   -1.9545    0.5827 N   0  0  0  0  0  0  0  0  0  0  0  0
   -3.9685   -2.4094    1.9209 C   0  0  0  0  0  0  0  0  0  0  0  0
   -1.5536   -1.0687    1.4172 C   0  0  0  0  0  0  0  0  0  0  0  0
   -0.3572   -0.4135    1.2050 C   0  0  0  0  0  0  0  0  0  0  0  0
    1.8610    1.5271    0.7466 C   0  0  0  0  0  0  0  0  0  0  0  0
    3.0599    2.1698    0.5271 C   0  0  0  0  0  0  0  0  0  0  0  0
    3.7252    1.2258   -2.5905 H   0  0  0  0  0  0  0  0  0  0  0  0
    1.5451    0.0465   -2.2164 H   0  0  0  0  0  0  0  0  0  0  0  0
   -0.6074    0.1959   -2.0761 H   0  0  0  0  0  0  0  0  0  0  0  0
   -2.7408   -0.9718   -1.7016 H   0  0  0  0  0  0  0  0  0  0  0  0
   -4.2941   -2.0879   -0.2388 H   0  0  0  0  0  0  0  0  0  0  0  0
   -4.2117   -1.5162    2.5312 H   0  0  0  0  0  0  0  0  0  0  0  0
   -4.8551   -3.0804    1.8657 H   0  0  0  0  0  0  0  0  0  0  0  0
   -3.1468   -3.0045    2.3716 H   0  0  0  0  0  0  0  0  0  0  0  0
   -1.8173   -1.4242    2.4044 H   0  0  0  0  0  0  0  0  0  0  0  0
    0.3477   -0.2387    2.0223 H   0  0  0  0  0  0  0  0  0  0  0  0
    1.3456    1.6211    1.6933 H   0  0  0  0  0  0  0  0  0  0  0  0
    3.5249    2.7932    1.3053 H   0  0  0  0  0  0  0  0  0  0  0  0
  1  2  3  0
  2  3  1  0
  3  4  2  0
  4  5  1  0
  5  6  2  0
  6  7  1  0
  7  8  2  0
  8  9  1  0
  9 10  2  0
 10 11  1  0
 11 12  1  0
 10 13  1  0
 13 14  2  0
  6 15  1  0
 15 16  2  0
 16  3  1  0
 14  7  1  0
  4 17  1  0
  5 18  1  0
  8 19  1  0
  9 20  1  0
 11 21  1  0
 12 22  1  0
 12 23  1  0
 12 24  1  0
 13 25  1  0
 14 26  1  0
 15 27  1  0
 16 28  1  0
M  CHG  2   1  -1   2   1
M  END
