
     RDKit          3D

 48 51  0  0  0  0  0  0  0  0999 V2000
   -0.6354    5.7369   -3.6310 C   0  0  0  0  0  0  0  0  0  0  0  0
   -0.5575    4.5819   -3.0155 O   0  0  0  0  0  0  0  0  0  0  0  0
   -0.4073    3.4774   -2.4183 C   0  0  0  0  0  0  0  0  0  0  0  0
    0.6368    2.7919   -1.9388 C   0  0  0  0  0  0  0  0  0  0  0  0
    0.8227    1.6333   -1.3040 C   0  0  0  0  0  0  0  0  0  0  0  0
   -0.4685    0.9512   -1.0898 C   0  0  0  0  0  0  0  0  0  0  0  0
   -0.5004   -0.3185   -0.3448 C   0  0  0  0  0  0  0  0  0  0  0  0
   -1.6916   -0.9878   -0.2842 N   0  0  0  0  0  0  0  0  0  0  0  0
   -1.5953   -2.0524    0.5456 C   0  0  0  0  0  0  0  0  0  0  0  0
   -2.8219   -2.8218    0.8677 C   0  0  0  0  0  0  0  0  0  0  0  0
   -2.8067   -3.9344    1.7046 C   0  0  0  0  0  0  0  0  0  0  0  0
   -3.9642   -4.4850    2.2840 C   0  0  0  0  0  0  0  0  0  0  0  0
   -5.2596   -3.8567    2.0002 C   0  0  0  0  0  0  0  0  0  0  0  0
   -6.4888   -3.9823    2.6819 C   0  0  0  0  0  0  0  0  0  0  0  0
   -7.6103   -4.0973    3.3122 N   0  0  0  0  0  0  0  0  0  0  0  0
   -5.1115   -2.7909    1.1331 C   0  0  0  0  0  0  0  0  0  0  0  0
   -4.0053   -2.2886    0.5932 C   0  0  0  0  0  0  0  0  0  0  0  0
   -0.3643   -2.0585    0.9816 N   0  0  0  0  0  0  0  0  0  0  0  0
    0.3279   -0.9910    0.4470 C   0  0  0  0  0  0  0  0  0  0  0  0
    1.7320   -0.6632    0.7060 C   0  0  0  0  0  0  0  0  0  0  0  0
    2.6940   -1.1293   -0.2095 C   0  0  0  0  0  0  0  0  0  0  0  0
    3.9772   -0.7942   -0.1215 C   0  0  0  0  0  0  0  0  0  0  0  0
    4.4456    0.1107    0.9824 C   0  0  0  0  0  0  0  0  0  0  0  0
    5.6953    0.3269    0.8875 O   0  0  0  0  0  0  0  0  0  0  0  0
    6.9425    0.5531    0.8071 C   0  0  0  0  0  0  0  0  0  0  0  0
    3.4972    0.5543    1.8779 C   0  0  0  0  0  0  0  0  0  0  0  0
    2.1893    0.1267    1.6690 C   0  0  0  0  0  0  0  0  0  0  0  0
   -1.5128    1.5770   -1.5396 C   0  0  0  0  0  0  0  0  0  0  0  0
   -1.7554    2.7416   -2.1807 C   0  0  0  0  0  0  0  0  0  0  0  0
    0.0065    5.8664   -4.5525 H   0  0  0  0  0  0  0  0  0  0  0  0
   -1.7131    5.9630   -3.9827 H   0  0  0  0  0  0  0  0  0  0  0  0
   -0.4618    6.5892   -2.8940 H   0  0  0  0  0  0  0  0  0  0  0  0
    1.6497    3.4011   -2.1061 H   0  0  0  0  0  0  0  0  0  0  0  0
    1.6811    1.1886   -0.9975 H   0  0  0  0  0  0  0  0  0  0  0  0
   -1.8792   -4.4100    1.9826 H   0  0  0  0  0  0  0  0  0  0  0  0
   -4.0768   -5.2695    2.9277 H   0  0  0  0  0  0  0  0  0  0  0  0
   -6.1004   -2.2376    0.8987 H   0  0  0  0  0  0  0  0  0  0  0  0
   -4.0987   -1.3976   -0.1057 H   0  0  0  0  0  0  0  0  0  0  0  0
    0.0211   -2.7606    1.6161 H   0  0  0  0  0  0  0  0  0  0  0  0
    2.3442   -1.7938   -1.0155 H   0  0  0  0  0  0  0  0  0  0  0  0
    4.7700   -1.1002   -0.8050 H   0  0  0  0  0  0  0  0  0  0  0  0
    7.1525    1.5496    0.2194 H   0  0  0  0  0  0  0  0  0  0  0  0
    7.4539    0.7315    1.8002 H   0  0  0  0  0  0  0  0  0  0  0  0
    7.6450   -0.2021    0.3151 H   0  0  0  0  0  0  0  0  0  0  0  0
    3.8086    1.1914    2.6831 H   0  0  0  0  0  0  0  0  0  0  0  0
    1.4972    0.5566    2.4704 H   0  0  0  0  0  0  0  0  0  0  0  0
   -2.5233    0.9973   -1.3467 H   0  0  0  0  0  0  0  0  0  0  0  0
   -2.5804    3.2257   -2.5109 H   0  0  0  0  0  0  0  0  0  0  0  0
  1  2  1  0
  2  3  1  0
  3  4  2  0
  4  5  1  0
  5  6  2  0
  6  7  1  0
  7  8  1  0
  8  9  2  0
  9 10  1  0
 10 11  2  0
 11 12  1  0
 12 13  2  0
 13 14  1  0
 14 15  3  0
 13 16  1  0
 16 17  2  0
  9 18  1  0
 18 19  1  0
 19 20  1  0
 20 21  2  0
 21 22  1  0
 22 23  2  0
 23 24  1  0
 24 25  1  0
 23 26  1  0
 26 27  2  0
  6 28  1  0
 28 29  2  0
 29  3  1  0
 19  7  2  0
 27 20  1  0
 17 10  1  0
  1 30  1  0
  1 31  1  0
  1 32  1  0
  4 33  1  0
  5 34  1  0
 11 35  1  0
 12 36  1  0
 16 37  1  0
 17 38  1  0
 18 39  1  0
 21 40  1  0
 22 41  1  0
 25 42  1  0
 25 43  1  0
 25 44  1  0
 26 45  1  0
 27 46  1  0
 28 47  1  0
 29 48  1  0
M  END
