
     RDKit          3D

 72 80  0  0  0  0  0  0  0  0999 V2000
    8.0246    0.5227   -2.4766 C   0  0  0  0  0  0  0  0  0  0  0  0
    6.6430    0.5066   -1.8864 C   0  0  0  0  0  0  0  0  0  0  0  0
    6.4272    0.7661   -0.5524 C   0  0  0  0  0  0  0  0  0  0  0  0
    5.1288    0.7382   -0.0553 C   0  0  0  0  0  0  0  0  0  0  0  0
    4.0502    0.4591   -0.8567 C   0  0  0  0  0  0  0  0  0  0  0  0
    2.6520    0.4297   -0.3314 C   0  0  0  0  0  0  0  0  0  0  0  0
    2.1256    1.7072   -0.2538 C   0  0  0  0  0  0  0  0  0  0  0  0
    0.7767    1.7800   -0.0523 N   0  0  0  0  0  0  0  0  0  0  0  0
    0.3936    3.0627    0.0001 C   0  0  0  0  0  0  0  0  0  0  0  0
   -0.9509    3.3204    0.1849 C   0  0  0  0  0  0  0  0  0  0  0  0
   -1.2491    4.7620    0.3754 C   0  0  0  0  0  0  0  0  0  0  0  0
   -2.5122    5.2563    0.5927 C   0  0  0  0  0  0  0  0  0  0  0  0
   -2.3438    6.6417    0.7169 C   0  0  0  0  0  0  0  0  0  0  0  0
   -1.0123    6.9045    0.5708 C   0  0  0  0  0  0  0  0  0  0  0  0
   -0.4030    5.7661    0.3710 O   0  0  0  0  0  0  0  0  0  0  0  0
   -1.9974    2.3788    0.1680 C   0  0  0  0  0  0  0  0  0  0  0  0
   -3.1011    2.6183   -0.6690 C   0  0  0  0  0  0  0  0  0  0  0  0
   -3.9442    1.5540   -0.5231 C   0  0  0  0  0  0  0  0  0  0  0  0
   -3.3120    0.7005    0.4095 C   0  0  0  0  0  0  0  0  0  0  0  0
   -2.1482    1.2079    0.8164 N   0  0  0  0  0  0  0  0  0  0  0  0
   -3.9671   -0.5087    0.7321 C   0  0  0  0  0  0  0  0  0  0  0  0
   -5.4534   -0.5467    0.7498 C   0  0  0  0  0  0  0  0  0  0  0  0
   -6.2726   -1.6311    0.7963 C   0  0  0  0  0  0  0  0  0  0  0  0
   -7.5527   -1.1373    0.7885 C   0  0  0  0  0  0  0  0  0  0  0  0
   -7.4695    0.2438    0.7344 C   0  0  0  0  0  0  0  0  0  0  0  0
   -6.2002    0.5407    0.7136 O   0  0  0  0  0  0  0  0  0  0  0  0
   -3.3502   -1.7062    1.0652 C   0  0  0  0  0  0  0  0  0  0  0  0
   -2.1169   -1.9067    0.5739 N   0  0  0  0  0  0  0  0  0  0  0  0
   -1.6114   -3.0762    0.9790 C   0  0  0  0  0  0  0  0  0  0  0  0
   -0.3177   -3.3861    0.5546 C   0  0  0  0  0  0  0  0  0  0  0  0
   -0.0986   -4.8163    0.2779 C   0  0  0  0  0  0  0  0  0  0  0  0
    1.0713   -5.3418   -0.2136 C   0  0  0  0  0  0  0  0  0  0  0  0
    0.9085   -6.7200   -0.3480 C   0  0  0  0  0  0  0  0  0  0  0  0
   -0.3728   -6.9557    0.0763 C   0  0  0  0  0  0  0  0  0  0  0  0
   -0.9081   -5.8096    0.4277 O   0  0  0  0  0  0  0  0  0  0  0  0
    0.7564   -2.4666    0.4315 C   0  0  0  0  0  0  0  0  0  0  0  0
    2.0175   -2.8003    0.9906 C   0  0  0  0  0  0  0  0  0  0  0  0
    2.8209   -1.7352    0.7375 C   0  0  0  0  0  0  0  0  0  0  0  0
    2.0478   -0.7846    0.0403 C   0  0  0  0  0  0  0  0  0  0  0  0
    0.8077   -1.2517   -0.1331 N   0  0  0  0  0  0  0  0  0  0  0  0
   -2.6157   -3.7090    1.8199 C   0  0  0  0  0  0  0  0  0  0  0  0
   -3.6447   -2.8804    1.8650 C   0  0  0  0  0  0  0  0  0  0  0  0
    1.5828    3.8593   -0.1794 C   0  0  0  0  0  0  0  0  0  0  0  0
    2.6349    3.0727   -0.3340 C   0  0  0  0  0  0  0  0  0  0  0  0
    4.2688    0.2006   -2.1856 C   0  0  0  0  0  0  0  0  0  0  0  0
    5.5689    0.2232   -2.7090 C   0  0  0  0  0  0  0  0  0  0  0  0
    8.2475    1.5044   -2.9489 H   0  0  0  0  0  0  0  0  0  0  0  0
    8.7167    0.3231   -1.6176 H   0  0  0  0  0  0  0  0  0  0  0  0
    8.1679   -0.2726   -3.2208 H   0  0  0  0  0  0  0  0  0  0  0  0
    7.2370    0.9914    0.1241 H   0  0  0  0  0  0  0  0  0  0  0  0
    4.9152    0.9363    0.9941 H   0  0  0  0  0  0  0  0  0  0  0  0
   -3.4658    4.7433    0.6677 H   0  0  0  0  0  0  0  0  0  0  0  0
   -3.1255    7.3533    0.8934 H   0  0  0  0  0  0  0  0  0  0  0  0
   -0.5179    7.8554    0.6071 H   0  0  0  0  0  0  0  0  0  0  0  0
   -3.3059    3.4837   -1.3328 H   0  0  0  0  0  0  0  0  0  0  0  0
   -4.9095    1.4251   -1.0452 H   0  0  0  0  0  0  0  0  0  0  0  0
   -1.4376    0.7752    1.5587 H   0  0  0  0  0  0  0  0  0  0  0  0
   -5.9986   -2.6626    0.8102 H   0  0  0  0  0  0  0  0  0  0  0  0
   -8.4623   -1.7030    0.8177 H   0  0  0  0  0  0  0  0  0  0  0  0
   -8.2704    0.9524    0.7122 H   0  0  0  0  0  0  0  0  0  0  0  0
    2.0070   -4.8803   -0.4915 H   0  0  0  0  0  0  0  0  0  0  0  0
    1.6447   -7.4222   -0.7091 H   0  0  0  0  0  0  0  0  0  0  0  0
   -0.8582   -7.9249    0.1137 H   0  0  0  0  0  0  0  0  0  0  0  0
    2.2986   -3.7279    1.5220 H   0  0  0  0  0  0  0  0  0  0  0  0
    3.8926   -1.6541    1.0319 H   0  0  0  0  0  0  0  0  0  0  0  0
   -0.0289   -0.7316   -0.6699 H   0  0  0  0  0  0  0  0  0  0  0  0
   -2.4668   -4.6739    2.2768 H   0  0  0  0  0  0  0  0  0  0  0  0
   -4.5674   -3.0259    2.4322 H   0  0  0  0  0  0  0  0  0  0  0  0
    1.6515    4.9610   -0.1955 H   0  0  0  0  0  0  0  0  0  0  0  0
    3.6759    3.3344   -0.4914 H   0  0  0  0  0  0  0  0  0  0  0  0
    3.4744   -0.0292   -2.8794 H   0  0  0  0  0  0  0  0  0  0  0  0
    5.7041    0.0164   -3.7593 H   0  0  0  0  0  0  0  0  0  0  0  0
  1  2  1  0
  2  3  2  0
  3  4  1  0
  4  5  2  0
  5  6  1  0
  6  7  1  0
  7  8  2  0
  8  9  1  0
  9 10  2  0
 10 11  1  0
 11 12  2  0
 12 13  1  0
 13 14  2  0
 14 15  1  0
 10 16  1  0
 16 17  2  0
 17 18  1  0
 18 19  2  0
 19 20  1  0
 19 21  1  0
 21 22  1  0
 22 23  2  0
 23 24  1  0
 24 25  2  0
 25 26  1  0
 21 27  2  0
 27 28  1  0
 28 29  2  0
 29 30  1  0
 30 31  1  0
 31 32  2  0
 32 33  1  0
 33 34  2  0
 34 35  1  0
 30 36  2  0
 36 37  1  0
 37 38  2  0
 38 39  1  0
 39 40  1  0
 29 41  1  0
 41 42  2  0
  9 43  1  0
 43 44  2  0
  5 45  1  0
 45 46  2  0
 46  2  1  0
 39  6  2  0
 44  7  1  0
 15 11  1  0
 20 16  1  0
 26 22  1  0
 42 27  1  0
 35 31  1  0
 40 36  1  0
  1 47  1  0
  1 48  1  0
  1 49  1  0
  3 50  1  0
  4 51  1  0
 12 52  1  0
 13 53  1  0
 14 54  1  0
 17 55  1  0
 18 56  1  0
 20 57  1  0
 23 58  1  0
 24 59  1  0
 25 60  1  0
 32 61  1  0
 33 62  1  0
 34 63  1  0
 37 64  1  0
 38 65  1  0
 40 66  1  0
 41 67  1  0
 42 68  1  0
 43 69  1  0
 44 70  1  0
 45 71  1  0
 46 72  1  0
M  END
