
     RDKit          3D

 91 95  0  0  0  0  0  0  0  0999 V2000
    0.4447   -3.5721   -2.5486 C   0  0  0  0  0  0  0  0  0  0  0  0
    0.8397   -2.6693   -1.3745 C   0  0  0  0  0  0  0  0  0  0  0  0
   -0.2153   -1.6550   -1.1530 C   0  0  0  0  0  0  0  0  0  0  0  0
   -0.0152   -0.7146   -0.0072 C   0  0  0  0  0  0  0  0  0  0  0  0
    0.0839   -1.3967    1.3160 C   0  0  0  0  0  0  0  0  0  0  0  0
   -1.0877   -2.2034    1.7374 C   0  0  0  0  0  0  0  0  0  0  0  0
   -0.6993   -2.8429    3.0928 C   0  0  0  0  0  0  0  0  0  0  0  0
    1.1742    0.1741   -0.1336 C   0  0  0  0  0  0  0  0  0  0  0  0
    2.5403    0.0008   -0.2010 C   0  0  0  0  0  0  0  0  0  0  0  0
    3.4484    1.0453   -0.2919 C   0  0  0  0  0  0  0  0  0  0  0  0
    4.8961    0.8363   -0.3598 C   0  0  0  0  0  0  0  0  0  0  0  0
    5.4545   -0.2698   -0.9575 C   0  0  0  0  0  0  0  0  0  0  0  0
    6.8395   -0.4535   -1.0166 C   0  0  0  0  0  0  0  0  0  0  0  0
    7.7050    0.4698   -0.4756 C   0  0  0  0  0  0  0  0  0  0  0  0
    9.1878    0.2877   -0.5253 C   0  0  0  0  0  0  0  0  0  0  0  0
    9.4655   -1.0643   -1.1142 C   0  0  0  0  0  0  0  0  0  0  0  0
    9.8129    1.3209   -1.4641 C   0  0  0  0  0  0  0  0  0  0  0  0
    9.8218    0.4301    0.8331 C   0  0  0  0  0  0  0  0  0  0  0  0
   11.3074    0.2363    0.7075 C   0  0  0  0  0  0  0  0  0  0  0  0
    7.1428    1.5854    0.1278 C   0  0  0  0  0  0  0  0  0  0  0  0
    5.7768    1.7656    0.1855 C   0  0  0  0  0  0  0  0  0  0  0  0
    2.9793    2.3356   -0.3163 C   0  0  0  0  0  0  0  0  0  0  0  0
    1.6224    2.5428   -0.2494 C   0  0  0  0  0  0  0  0  0  0  0  0
    0.7246    1.4742   -0.1593 C   0  0  0  0  0  0  0  0  0  0  0  0
   -0.7169    1.5206   -0.0906 C   0  0  0  0  0  0  0  0  0  0  0  0
   -1.5974    2.5773   -0.1089 C   0  0  0  0  0  0  0  0  0  0  0  0
   -2.9394    2.3947   -0.0635 C   0  0  0  0  0  0  0  0  0  0  0  0
   -3.4074    1.0695    0.0031 C   0  0  0  0  0  0  0  0  0  0  0  0
   -4.8462    0.8993    0.0492 C   0  0  0  0  0  0  0  0  0  0  0  0
   -5.6232    1.8691    0.6946 C   0  0  0  0  0  0  0  0  0  0  0  0
   -6.9969    1.7912    0.7395 C   0  0  0  0  0  0  0  0  0  0  0  0
   -7.6684    0.7258    0.1327 C   0  0  0  0  0  0  0  0  0  0  0  0
   -9.1465    0.6674    0.1754 C   0  0  0  0  0  0  0  0  0  0  0  0
   -9.6484    1.3103   -1.1188 C   0  0  0  0  0  0  0  0  0  0  0  0
   -9.6275    1.5075    1.3547 C   0  0  0  0  0  0  0  0  0  0  0  0
   -9.6174   -0.7453    0.2942 C   0  0  0  0  0  0  0  0  0  0  0  0
  -11.1458   -0.8173    0.3473 C   0  0  0  0  0  0  0  0  0  0  0  0
   -6.9090   -0.2183   -0.4951 C   0  0  0  0  0  0  0  0  0  0  0  0
   -5.5059   -0.1427   -0.5425 C   0  0  0  0  0  0  0  0  0  0  0  0
   -2.5463   -0.0012    0.0230 C   0  0  0  0  0  0  0  0  0  0  0  0
   -1.1748    0.2136   -0.0226 C   0  0  0  0  0  0  0  0  0  0  0  0
   -0.3653   -3.1223   -3.1438 H   0  0  0  0  0  0  0  0  0  0  0  0
    0.0574   -4.5523   -2.1678 H   0  0  0  0  0  0  0  0  0  0  0  0
    1.3201   -3.8254   -3.1764 H   0  0  0  0  0  0  0  0  0  0  0  0
    1.1159   -3.3023   -0.5403 H   0  0  0  0  0  0  0  0  0  0  0  0
    1.7965   -2.1814   -1.7414 H   0  0  0  0  0  0  0  0  0  0  0  0
   -0.2523   -1.0134   -2.0813 H   0  0  0  0  0  0  0  0  0  0  0  0
   -1.2169   -2.1304   -1.0871 H   0  0  0  0  0  0  0  0  0  0  0  0
    1.0352   -1.9579    1.4481 H   0  0  0  0  0  0  0  0  0  0  0  0
    0.1759   -0.5625    2.0794 H   0  0  0  0  0  0  0  0  0  0  0  0
   -1.9698   -1.5489    2.0348 H   0  0  0  0  0  0  0  0  0  0  0  0
   -1.4026   -3.0149    1.0935 H   0  0  0  0  0  0  0  0  0  0  0  0
   -0.3938   -3.9121    2.9028 H   0  0  0  0  0  0  0  0  0  0  0  0
    0.1943   -2.3677    3.5271 H   0  0  0  0  0  0  0  0  0  0  0  0
   -1.5484   -2.8850    3.7775 H   0  0  0  0  0  0  0  0  0  0  0  0
    2.9687   -0.9789   -0.1717 H   0  0  0  0  0  0  0  0  0  0  0  0
    4.8011   -1.0321   -1.4014 H   0  0  0  0  0  0  0  0  0  0  0  0
    7.2478   -1.3443   -1.5011 H   0  0  0  0  0  0  0  0  0  0  0  0
    8.9460   -1.8607   -0.5612 H   0  0  0  0  0  0  0  0  0  0  0  0
   10.5461   -1.3037   -1.1764 H   0  0  0  0  0  0  0  0  0  0  0  0
    9.1342   -1.0108   -2.1850 H   0  0  0  0  0  0  0  0  0  0  0  0
    9.9282    2.2905   -0.9681 H   0  0  0  0  0  0  0  0  0  0  0  0
    9.1185    1.3559   -2.3413 H   0  0  0  0  0  0  0  0  0  0  0  0
   10.7667    0.9239   -1.8373 H   0  0  0  0  0  0  0  0  0  0  0  0
    9.4375   -0.3509    1.5376 H   0  0  0  0  0  0  0  0  0  0  0  0
    9.6321    1.4036    1.2888 H   0  0  0  0  0  0  0  0  0  0  0  0
   11.8347    0.4786    1.6690 H   0  0  0  0  0  0  0  0  0  0  0  0
   11.6098   -0.8066    0.4845 H   0  0  0  0  0  0  0  0  0  0  0  0
   11.7414    0.9323   -0.0406 H   0  0  0  0  0  0  0  0  0  0  0  0
    7.7697    2.3483    0.5679 H   0  0  0  0  0  0  0  0  0  0  0  0
    5.3258    2.6377    0.6594 H   0  0  0  0  0  0  0  0  0  0  0  0
    3.6635    3.1622   -0.3873 H   0  0  0  0  0  0  0  0  0  0  0  0
    1.2800    3.5617   -0.2692 H   0  0  0  0  0  0  0  0  0  0  0  0
   -1.2352    3.5961   -0.1609 H   0  0  0  0  0  0  0  0  0  0  0  0
   -3.6326    3.2205   -0.0798 H   0  0  0  0  0  0  0  0  0  0  0  0
   -5.1138    2.7045    1.1771 H   0  0  0  0  0  0  0  0  0  0  0  0
   -7.5866    2.5412    1.2383 H   0  0  0  0  0  0  0  0  0  0  0  0
  -10.5058    0.7807   -1.5462 H   0  0  0  0  0  0  0  0  0  0  0  0
   -9.9354    2.3687   -0.9482 H   0  0  0  0  0  0  0  0  0  0  0  0
   -8.8433    1.2834   -1.8938 H   0  0  0  0  0  0  0  0  0  0  0  0
   -9.6127    2.5625    1.0132 H   0  0  0  0  0  0  0  0  0  0  0  0
   -8.9836    1.3608    2.2285 H   0  0  0  0  0  0  0  0  0  0  0  0
  -10.6748    1.2891    1.6271 H   0  0  0  0  0  0  0  0  0  0  0  0
   -9.2482   -1.3287   -0.5646 H   0  0  0  0  0  0  0  0  0  0  0  0
   -9.2442   -1.1394    1.2665 H   0  0  0  0  0  0  0  0  0  0  0  0
  -11.5065   -1.1977    1.3147 H   0  0  0  0  0  0  0  0  0  0  0  0
  -11.6083    0.1550    0.0734 H   0  0  0  0  0  0  0  0  0  0  0  0
  -11.4610   -1.5396   -0.4260 H   0  0  0  0  0  0  0  0  0  0  0  0
   -7.3199   -1.0690   -0.9901 H   0  0  0  0  0  0  0  0  0  0  0  0
   -4.9233   -0.9038   -1.0474 H   0  0  0  0  0  0  0  0  0  0  0  0
   -2.9959   -0.9991    0.0548 H   0  0  0  0  0  0  0  0  0  0  0  0
  1  2  1  0
  2  3  1  0
  3  4  1  0
  4  5  1  0
  5  6  1  0
  6  7  1  0
  4  8  1  0
  8  9  2  0
  9 10  1  0
 10 11  1  0
 11 12  2  0
 12 13  1  0
 13 14  2  0
 14 15  1  0
 15 16  1  0
 15 17  1  0
 15 18  1  0
 18 19  1  0
 14 20  1  0
 20 21  2  0
 10 22  2  0
 22 23  1  0
 23 24  2  0
 24 25  1  0
 25 26  2  0
 26 27  1  0
 27 28  2  0
 28 29  1  0
 29 30  2  0
 30 31  1  0
 31 32  2  0
 32 33  1  0
 33 34  1  0
 33 35  1  0
 33 36  1  0
 36 37  1  0
 32 38  1  0
 38 39  2  0
 28 40  1  0
 40 41  2  0
 41  4  1  0
 24  8  1  0
 41 25  1  0
 21 11  1  0
 39 29  1  0
  1 42  1  0
  1 43  1  0
  1 44  1  0
  2 45  1  0
  2 46  1  0
  3 47  1  0
  3 48  1  0
  5 49  1  0
  5 50  1  0
  6 51  1  0
  6 52  1  0
  7 53  1  0
  7 54  1  0
  7 55  1  0
  9 56  1  0
 12 57  1  0
 13 58  1  0
 16 59  1  0
 16 60  1  0
 16 61  1  0
 17 62  1  0
 17 63  1  0
 17 64  1  0
 18 65  1  0
 18 66  1  0
 19 67  1  0
 19 68  1  0
 19 69  1  0
 20 70  1  0
 21 71  1  0
 22 72  1  0
 23 73  1  0
 26 74  1  0
 27 75  1  0
 30 76  1  0
 31 77  1  0
 34 78  1  0
 34 79  1  0
 34 80  1  0
 35 81  1  0
 35 82  1  0
 35 83  1  0
 36 84  1  0
 36 85  1  0
 37 86  1  0
 37 87  1  0
 37 88  1  0
 38 89  1  0
 39 90  1  0
 40 91  1  0
M  END
