
     RDKit          3D

 30 32  0  0  0  0  0  0  0  0999 V2000
   -2.9279    2.4864    1.0303 O   0  0  0  0  0  0  0  0  0  0  0  0
   -2.2551    1.5647    0.5177 C   0  0  0  0  0  0  0  0  0  0  0  0
   -0.9430    1.8831   -0.0255 C   0  0  0  0  0  0  0  0  0  0  0  0
   -0.1836    0.9504   -0.5808 C   0  0  0  0  0  0  0  0  0  0  0  0
    1.1078    1.2443   -1.1196 N   0  0  0  0  0  0  0  0  0  0  0  0
    2.3031    0.7814   -0.5593 C   0  0  0  0  0  0  0  0  0  0  0  0
    3.5036    1.1144   -1.1460 C   0  0  0  0  0  0  0  0  0  0  0  0
    4.7103    0.6805   -0.6287 C   0  0  0  0  0  0  0  0  0  0  0  0
    4.6599   -0.1079    0.5112 C   0  0  0  0  0  0  0  0  0  0  0  0
    5.8335   -0.5461    1.0377 F   0  0  0  0  0  0  0  0  0  0  0  0
    3.4598   -0.4333    1.0869 C   0  0  0  0  0  0  0  0  0  0  0  0
    2.2510   -0.0053    0.5783 C   0  0  0  0  0  0  0  0  0  0  0  0
   -0.7068   -0.4099   -0.6304 C   0  0  0  0  0  0  0  0  0  0  0  0
    0.0310   -1.2948   -1.1653 O   0  0  0  0  0  0  0  0  0  0  0  0
   -2.0228   -0.7703   -0.0944 C   0  0  0  0  0  0  0  0  0  0  0  0
   -2.4717   -2.0873   -0.1693 C   0  0  0  0  0  0  0  0  0  0  0  0
   -3.7009   -2.4336    0.3292 C   0  0  0  0  0  0  0  0  0  0  0  0
   -4.4733   -1.4387    0.9041 C   0  0  0  0  0  0  0  0  0  0  0  0
   -4.0187   -0.1344    0.9735 C   0  0  0  0  0  0  0  0  0  0  0  0
   -2.7844    0.2128    0.4728 C   0  0  0  0  0  0  0  0  0  0  0  0
   -0.5213    2.8852   -0.0059 H   0  0  0  0  0  0  0  0  0  0  0  0
    1.1505    1.8380   -1.9786 H   0  0  0  0  0  0  0  0  0  0  0  0
    3.5492    1.7380   -2.0483 H   0  0  0  0  0  0  0  0  0  0  0  0
    5.6675    0.9245   -1.0654 H   0  0  0  0  0  0  0  0  0  0  0  0
    3.4591   -1.0491    1.9739 H   0  0  0  0  0  0  0  0  0  0  0  0
    1.3160   -0.2782    1.0546 H   0  0  0  0  0  0  0  0  0  0  0  0
   -1.8490   -2.8437   -0.6228 H   0  0  0  0  0  0  0  0  0  0  0  0
   -4.0887   -3.4386    0.2932 H   0  0  0  0  0  0  0  0  0  0  0  0
   -5.4513   -1.6950    1.3048 H   0  0  0  0  0  0  0  0  0  0  0  0
   -4.6037    0.6622    1.4181 H   0  0  0  0  0  0  0  0  0  0  0  0
  1  2  2  0
  2  3  1  0
  3  4  2  0
  4  5  1  0
  5  6  1  0
  6  7  2  0
  7  8  1  0
  8  9  2  0
  9 10  1  0
  9 11  1  0
 11 12  2  0
  4 13  1  0
 13 14  2  0
 13 15  1  0
 15 16  2  0
 16 17  1  0
 17 18  2  0
 18 19  1  0
 19 20  2  0
 20  2  1  0
 12  6  1  0
 20 15  1  0
  3 21  1  0
  5 22  1  0
  7 23  1  0
  8 24  1  0
 11 25  1  0
 12 26  1  0
 16 27  1  0
 17 28  1  0
 18 29  1  0
 19 30  1  0
M  END
