
     RDKit          3D

 79 85  0  0  0  0  0  0  0  0999 V2000
   -0.7261   -2.5367   -0.9693 O   0  0  0  0  0  0  0  0  0  0  0  0
   -0.5795   -1.3554   -0.5063 C   0  0  0  0  0  0  0  0  0  0  0  0
    0.7661   -0.8319   -0.4523 C   0  0  0  0  0  0  0  0  0  0  0  0
    1.7684   -1.5077   -1.1197 C   0  0  0  0  0  0  0  0  0  0  0  0
    3.0865   -1.1259   -1.0526 C   0  0  0  0  0  0  0  0  0  0  0  0
    3.5380   -0.0464   -0.3170 C   0  0  0  0  0  0  0  0  0  0  0  0
    4.9084    0.2207   -0.1501 N   0  0  0  0  0  0  0  0  0  0  0  0
    5.5340    1.4953   -0.4362 C   0  0  0  0  0  0  0  0  0  0  0  0
    5.1082    2.7114   -0.0946 C   0  0  0  0  0  0  0  0  0  0  0  0
    5.8070    3.8906   -0.4405 C   0  0  0  0  0  0  0  0  0  0  0  0
    6.9708    3.7828   -1.1529 C   0  0  0  0  0  0  0  0  0  0  0  0
    7.4216    2.5229   -1.5084 C   0  0  0  0  0  0  0  0  0  0  0  0
    6.7428    1.3882   -1.1741 C   0  0  0  0  0  0  0  0  0  0  0  0
    5.8160   -0.7037    0.4091 C   0  0  0  0  0  0  0  0  0  0  0  0
    5.9440   -2.0109    0.1036 C   0  0  0  0  0  0  0  0  0  0  0  0
    6.8697   -2.8631    0.7403 C   0  0  0  0  0  0  0  0  0  0  0  0
    7.7013   -2.3840    1.7254 C   0  0  0  0  0  0  0  0  0  0  0  0
    7.5792   -1.0354    2.0496 C   0  0  0  0  0  0  0  0  0  0  0  0
    6.6876   -0.2417    1.4264 C   0  0  0  0  0  0  0  0  0  0  0  0
    2.5322    0.6471    0.3637 C   0  0  0  0  0  0  0  0  0  0  0  0
    1.1916    0.2457    0.2795 C   0  0  0  0  0  0  0  0  0  0  0  0
   -1.8211   -0.6537   -0.0884 C   0  0  1  0  0  0  0  0  0  0  0  0
   -2.1569    0.5300   -0.8859 C   0  0  2  0  0  0  0  0  0  0  0  0
   -2.1127    1.7943   -0.0575 C   0  0  0  0  0  0  0  0  0  0  0  0
   -2.0289    3.0720   -0.5354 C   0  0  0  0  0  0  0  0  0  0  0  0
   -1.9845    4.0679    0.3714 C   0  0  0  0  0  0  0  0  0  0  0  0
   -2.0277    3.7075    1.6913 C   0  0  0  0  0  0  0  0  0  0  0  0
   -2.1292    2.0147    1.6294 S   0  0  0  0  0  0  0  0  0  0  0  0
   -3.4288    0.5132   -1.6808 C   0  0  0  0  0  0  0  0  0  0  0  0
   -4.5238   -0.3355   -1.1839 C   0  0  2  0  0  0  0  0  0  0  0  0
   -4.6925   -1.4200   -2.0980 O   0  0  0  0  0  0  0  0  0  0  0  0
   -5.8632    0.2916   -1.1329 C   0  0  0  0  0  0  0  0  0  0  0  0
   -6.0690    1.5823   -0.7554 C   0  0  0  0  0  0  0  0  0  0  0  0
   -7.3388    2.1517   -0.7020 C   0  0  0  0  0  0  0  0  0  0  0  0
   -8.4562    1.4136   -1.0343 C   0  0  0  0  0  0  0  0  0  0  0  0
   -8.2053    0.0919   -1.4160 C   0  0  0  0  0  0  0  0  0  0  0  0
   -6.9855   -0.4065   -1.4546 N   0  0  0  0  0  0  0  0  0  0  0  0
   -4.2407   -0.9154    0.1506 C   0  0  0  0  0  0  0  0  0  0  0  0
   -2.9283   -1.6686    0.0991 C   0  0  1  0  0  0  0  0  0  0  0  0
   -2.9400   -2.6146   -0.9140 O   0  0  0  0  0  0  0  0  0  0  0  0
   -2.8114   -2.3380    1.4240 C   0  0  0  0  0  0  0  0  0  0  0  0
   -2.8872   -3.6988    1.5260 C   0  0  0  0  0  0  0  0  0  0  0  0
   -2.7778   -4.3636    2.7370 C   0  0  0  0  0  0  0  0  0  0  0  0
   -2.5850   -3.6187    3.8887 C   0  0  0  0  0  0  0  0  0  0  0  0
   -2.5126   -2.2628    3.7586 C   0  0  0  0  0  0  0  0  0  0  0  0
   -2.6200   -1.6547    2.5784 N   0  0  0  0  0  0  0  0  0  0  0  0
    1.5211   -2.3586   -1.7279 H   0  0  0  0  0  0  0  0  0  0  0  0
    3.8237   -1.6642   -1.6696 H   0  0  0  0  0  0  0  0  0  0  0  0
    4.2091    2.8325    0.4705 H   0  0  0  0  0  0  0  0  0  0  0  0
    5.3860    4.8510   -0.1202 H   0  0  0  0  0  0  0  0  0  0  0  0
    7.5288    4.6535   -1.4338 H   0  0  0  0  0  0  0  0  0  0  0  0
    8.3625    2.4208   -2.0736 H   0  0  0  0  0  0  0  0  0  0  0  0
    7.0841    0.3783   -1.4553 H   0  0  0  0  0  0  0  0  0  0  0  0
    5.3576   -2.4827   -0.6476 H   0  0  0  0  0  0  0  0  0  0  0  0
    6.9203   -3.9208    0.4398 H   0  0  0  0  0  0  0  0  0  0  0  0
    8.4141   -3.0429    2.2116 H   0  0  0  0  0  0  0  0  0  0  0  0
    8.2419   -0.6838    2.8172 H   0  0  0  0  0  0  0  0  0  0  0  0
    6.5998    0.8034    1.6786 H   0  0  0  0  0  0  0  0  0  0  0  0
    2.7829    1.4753    0.9941 H   0  0  0  0  0  0  0  0  0  0  0  0
    0.4566    0.8276    0.8329 H   0  0  0  0  0  0  0  0  0  0  0  0
   -1.5946   -0.3107    0.9735 H   0  0  0  0  0  0  0  0  0  0  0  0
   -1.3496    0.6932   -1.6610 H   0  0  0  0  0  0  0  0  0  0  0  0
   -2.0023    3.2961   -1.6290 H   0  0  0  0  0  0  0  0  0  0  0  0
   -1.9191    5.1615    0.1119 H   0  0  0  0  0  0  0  0  0  0  0  0
   -2.0024    4.3905    2.5663 H   0  0  0  0  0  0  0  0  0  0  0  0
   -3.7899    1.5599   -1.7286 H   0  0  0  0  0  0  0  0  0  0  0  0
   -3.2071    0.2565   -2.7572 H   0  0  0  0  0  0  0  0  0  0  0  0
   -5.3840   -2.0039   -1.7576 H   0  0  0  0  0  0  0  0  0  0  0  0
   -5.2375    2.2126   -0.4839 H   0  0  0  0  0  0  0  0  0  0  0  0
   -7.4803    3.1716   -0.4059 H   0  0  0  0  0  0  0  0  0  0  0  0
   -9.4778    1.8182   -1.0061 H   0  0  0  0  0  0  0  0  0  0  0  0
   -9.1082   -0.4783   -1.6661 H   0  0  0  0  0  0  0  0  0  0  0  0
   -4.1443   -0.0595    0.8696 H   0  0  0  0  0  0  0  0  0  0  0  0
   -5.0863   -1.5619    0.5017 H   0  0  0  0  0  0  0  0  0  0  0  0
   -2.7082   -2.2700   -1.8089 H   0  0  0  0  0  0  0  0  0  0  0  0
   -3.0416   -4.2940    0.6201 H   0  0  0  0  0  0  0  0  0  0  0  0
   -2.8351   -5.4340    2.7990 H   0  0  0  0  0  0  0  0  0  0  0  0
   -2.4976   -4.1181    4.8731 H   0  0  0  0  0  0  0  0  0  0  0  0
   -2.3635   -1.6612    4.6451 H   0  0  0  0  0  0  0  0  0  0  0  0
  1  2  2  0
  2  3  1  0
  3  4  2  0
  4  5  1  0
  5  6  2  0
  6  7  1  0
  7  8  1  0
  8  9  2  0
  9 10  1  0
 10 11  2  0
 11 12  1  0
 12 13  2  0
  7 14  1  0
 14 15  2  0
 15 16  1  0
 16 17  2  0
 17 18  1  0
 18 19  2  0
  6 20  1  0
 20 21  2  0
  2 22  1  0
 22 23  1  0
 23 24  1  0
 24 25  2  0
 25 26  1  0
 26 27  2  0
 27 28  1  0
 23 29  1  0
 29 30  1  0
 30 31  1  6
 30 32  1  0
 32 33  2  0
 33 34  1  0
 34 35  2  0
 35 36  1  0
 36 37  2  0
 30 38  1  0
 38 39  1  0
 39 40  1  6
 39 41  1  0
 41 42  2  0
 42 43  1  0
 43 44  2  0
 44 45  1  0
 45 46  2  0
 21  3  1  0
 39 22  1  0
 46 41  1  0
 13  8  1  0
 19 14  1  0
 28 24  1  0
 37 32  1  0
  4 47  1  0
  5 48  1  0
  9 49  1  0
 10 50  1  0
 11 51  1  0
 12 52  1  0
 13 53  1  0
 15 54  1  0
 16 55  1  0
 17 56  1  0
 18 57  1  0
 19 58  1  0
 20 59  1  0
 21 60  1  0
 22 61  1  1
 23 62  1  6
 25 63  1  0
 26 64  1  0
 27 65  1  0
 29 66  1  0
 29 67  1  0
 31 68  1  0
 33 69  1  0
 34 70  1  0
 35 71  1  0
 36 72  1  0
 38 73  1  0
 38 74  1  0
 40 75  1  0
 42 76  1  0
 43 77  1  0
 44 78  1  0
 45 79  1  0
M  END
