
     RDKit          3D

 62 65  0  0  0  0  0  0  0  0999 V2000
    6.5233   -0.3326    1.4790 C   0  0  0  0  0  0  0  0  0  0  0  0
    5.8049   -0.0712    0.1789 C   0  0  0  0  0  0  0  0  0  0  0  0
    5.0823   -1.3131   -0.3214 C   0  0  0  0  0  0  0  0  0  0  0  0
    4.3546   -0.9994   -1.6307 C   0  0  0  0  0  0  0  0  0  0  0  0
    3.3472    0.0664   -1.4289 C   0  0  0  0  0  0  0  0  0  0  0  0
    3.7200    1.3591   -1.7762 C   0  0  0  0  0  0  0  0  0  0  0  0
    2.8053    2.3544   -1.5518 C   0  0  0  0  0  0  0  0  0  0  0  0
    1.5518    2.0998   -1.0007 C   0  0  0  0  0  0  0  0  0  0  0  0
    0.6604    3.1505   -0.7916 C   0  0  0  0  0  0  0  0  0  0  0  0
   -0.5720    2.8845   -0.2468 C   0  0  0  0  0  0  0  0  0  0  0  0
   -0.9027    1.6002    0.0793 C   0  0  0  0  0  0  0  0  0  0  0  0
   -2.1521    1.3761    0.6235 C   0  0  0  0  0  0  0  0  0  0  0  0
   -3.1700    2.4441    0.8383 C   0  0  0  0  0  0  0  0  0  0  0  0
   -3.8356    2.7106   -0.4934 C   0  0  0  0  0  0  0  0  0  0  0  0
   -4.8900    3.7718   -0.4351 C   0  0  0  0  0  0  0  0  0  0  0  0
   -5.4795    3.9407   -1.8246 C   0  0  0  0  0  0  0  0  0  0  0  0
   -2.4948    0.0848    0.9564 C   0  0  0  0  0  0  0  0  0  0  0  0
   -1.6577   -0.9873    0.7728 C   0  0  0  0  0  0  0  0  0  0  0  0
   -2.0839   -2.3663    1.1258 C   0  0  0  0  0  0  0  0  0  0  0  0
   -2.5103   -3.1447   -0.0983 C   0  0  0  0  0  0  0  0  0  0  0  0
   -2.9348   -4.5344    0.3153 C   0  0  0  0  0  0  0  0  0  0  0  0
   -1.8324   -5.2870    0.9867 C   0  0  0  0  0  0  0  0  0  0  0  0
   -0.4117   -0.7433    0.2266 C   0  0  0  0  0  0  0  0  0  0  0  0
    0.4979   -1.7469    0.0043 C   0  0  0  0  0  0  0  0  0  0  0  0
    1.7453   -1.5102   -0.5406 C   0  0  0  0  0  0  0  0  0  0  0  0
    2.1292   -0.2343   -0.8865 C   0  0  0  0  0  0  0  0  0  0  0  0
    1.2110    0.8073   -0.6675 C   0  0  0  0  0  0  0  0  0  0  0  0
   -0.0328    0.5523   -0.1207 C   0  0  0  0  0  0  0  0  0  0  0  0
    5.9227    0.0961    2.3103 H   0  0  0  0  0  0  0  0  0  0  0  0
    7.4709    0.2760    1.4806 H   0  0  0  0  0  0  0  0  0  0  0  0
    6.7175   -1.4144    1.6396 H   0  0  0  0  0  0  0  0  0  0  0  0
    5.0354    0.7009    0.3652 H   0  0  0  0  0  0  0  0  0  0  0  0
    6.5562    0.2720   -0.5731 H   0  0  0  0  0  0  0  0  0  0  0  0
    4.3753   -1.6857    0.4098 H   0  0  0  0  0  0  0  0  0  0  0  0
    5.8663   -2.0731   -0.5174 H   0  0  0  0  0  0  0  0  0  0  0  0
    3.9354   -1.9548   -1.9899 H   0  0  0  0  0  0  0  0  0  0  0  0
    5.0957   -0.6804   -2.4048 H   0  0  0  0  0  0  0  0  0  0  0  0
    4.6979    1.5431   -2.2033 H   0  0  0  0  0  0  0  0  0  0  0  0
    3.0664    3.3713   -1.8121 H   0  0  0  0  0  0  0  0  0  0  0  0
    0.9868    4.1492   -1.0738 H   0  0  0  0  0  0  0  0  0  0  0  0
   -1.2352    3.7136   -0.0890 H   0  0  0  0  0  0  0  0  0  0  0  0
   -3.9263    2.0620    1.5503 H   0  0  0  0  0  0  0  0  0  0  0  0
   -2.7335    3.3564    1.2790 H   0  0  0  0  0  0  0  0  0  0  0  0
   -4.3116    1.7350   -0.8245 H   0  0  0  0  0  0  0  0  0  0  0  0
   -3.1023    2.9272   -1.2843 H   0  0  0  0  0  0  0  0  0  0  0  0
   -4.4688    4.7251   -0.0841 H   0  0  0  0  0  0  0  0  0  0  0  0
   -5.6743    3.4435    0.3029 H   0  0  0  0  0  0  0  0  0  0  0  0
   -4.9365    4.6912   -2.3946 H   0  0  0  0  0  0  0  0  0  0  0  0
   -6.5652    4.1317   -1.7384 H   0  0  0  0  0  0  0  0  0  0  0  0
   -5.3905    2.9367   -2.3275 H   0  0  0  0  0  0  0  0  0  0  0  0
   -3.4779   -0.1459    1.3956 H   0  0  0  0  0  0  0  0  0  0  0  0
   -1.2872   -2.9024    1.6950 H   0  0  0  0  0  0  0  0  0  0  0  0
   -2.9622   -2.3412    1.8015 H   0  0  0  0  0  0  0  0  0  0  0  0
   -3.4073   -2.6199   -0.5303 H   0  0  0  0  0  0  0  0  0  0  0  0
   -1.7647   -3.2324   -0.8809 H   0  0  0  0  0  0  0  0  0  0  0  0
   -3.7365   -4.3874    1.0921 H   0  0  0  0  0  0  0  0  0  0  0  0
   -3.3125   -5.1242   -0.5339 H   0  0  0  0  0  0  0  0  0  0  0  0
   -1.8632   -5.1828    2.0977 H   0  0  0  0  0  0  0  0  0  0  0  0
   -1.8747   -6.3753    0.7754 H   0  0  0  0  0  0  0  0  0  0  0  0
   -0.8556   -4.8599    0.6771 H   0  0  0  0  0  0  0  0  0  0  0  0
    0.2570   -2.7668    0.2595 H   0  0  0  0  0  0  0  0  0  0  0  0
    2.4296   -2.3169   -0.7109 H   0  0  0  0  0  0  0  0  0  0  0  0
  1  2  1  0
  2  3  1  0
  3  4  1  0
  4  5  1  0
  5  6  2  0
  6  7  1  0
  7  8  2  0
  8  9  1  0
  9 10  2  0
 10 11  1  0
 11 12  2  0
 12 13  1  0
 13 14  1  0
 14 15  1  0
 15 16  1  0
 12 17  1  0
 17 18  2  0
 18 19  1  0
 19 20  1  0
 20 21  1  0
 21 22  1  0
 18 23  1  0
 23 24  2  0
 24 25  1  0
 25 26  2  0
 26 27  1  0
 27 28  2  0
 26  5  1  0
 27  8  1  0
 28 11  1  0
 28 23  1  0
  1 29  1  0
  1 30  1  0
  1 31  1  0
  2 32  1  0
  2 33  1  0
  3 34  1  0
  3 35  1  0
  4 36  1  0
  4 37  1  0
  6 38  1  0
  7 39  1  0
  9 40  1  0
 10 41  1  0
 13 42  1  0
 13 43  1  0
 14 44  1  0
 14 45  1  0
 15 46  1  0
 15 47  1  0
 16 48  1  0
 16 49  1  0
 16 50  1  0
 17 51  1  0
 19 52  1  0
 19 53  1  0
 20 54  1  0
 20 55  1  0
 21 56  1  0
 21 57  1  0
 22 58  1  0
 22 59  1  0
 22 60  1  0
 24 61  1  0
 25 62  1  0
M  END
