
     RDKit          3D

 58 62  0  0  0  0  0  0  0  0999 V2000
    5.3110   -1.5689    2.2884 C   0  0  0  0  0  0  0  0  0  0  0  0
    4.1550   -1.1383    1.8211 C   0  0  0  0  0  0  0  0  0  0  0  0
    3.7357   -1.5025    0.4669 C   0  0  0  0  0  0  0  0  0  0  0  0
    2.4557   -2.3025    0.4385 C   0  0  0  0  0  0  0  0  0  0  0  0
    1.4538   -1.5980   -0.3372 N   0  0  0  0  0  0  0  0  0  0  0  0
    1.9064   -1.4273   -1.6782 C   0  0  0  0  0  0  0  0  0  0  0  0
    3.2208   -0.6751   -1.7612 C   0  0  0  0  0  0  0  0  0  0  0  0
    3.5546   -0.2224   -0.3659 C   0  0  0  0  0  0  0  0  0  0  0  0
    2.3603    0.5526    0.1714 C   0  0  0  0  0  0  0  0  0  0  0  0
    1.1946   -0.3519    0.3598 C   0  0  0  0  0  0  0  0  0  0  0  0
   -0.0310    0.3610   -0.1858 C   0  0  1  0  0  0  0  0  0  0  0  0
   -1.1584   -0.4456   -0.0203 O   0  0  0  0  0  0  0  0  0  0  0  0
   -1.7735   -0.9147   -1.1218 C   0  0  0  0  0  0  0  0  0  0  0  0
   -2.9240   -1.7736   -0.6559 C   0  0  0  0  0  0  0  0  0  0  0  0
   -3.2220   -2.9764   -1.2597 C   0  0  0  0  0  0  0  0  0  0  0  0
   -4.2844   -3.7621   -0.8311 C   0  0  0  0  0  0  0  0  0  0  0  0
   -5.0780   -3.3607    0.2171 C   0  0  0  0  0  0  0  0  0  0  0  0
   -4.7860   -2.1588    0.8261 C   0  0  0  0  0  0  0  0  0  0  0  0
   -3.7151   -1.3664    0.3941 C   0  0  0  0  0  0  0  0  0  0  0  0
   -0.2542    1.5618    0.6416 C   0  0  0  0  0  0  0  0  0  0  0  0
    0.2080    1.6029    1.9310 C   0  0  0  0  0  0  0  0  0  0  0  0
   -0.0640    2.7216    2.7319 C   0  0  0  0  0  0  0  0  0  0  0  0
   -0.7666    3.7611    2.2782 N   0  0  0  0  0  0  0  0  0  0  0  0
   -1.2134    3.7235    1.0320 C   0  0  0  0  0  0  0  0  0  0  0  0
   -1.9245    4.8337    0.5953 C   0  0  0  0  0  0  0  0  0  0  0  0
   -2.3993    4.8624   -0.6927 C   0  0  0  0  0  0  0  0  0  0  0  0
   -2.1588    3.7888   -1.5217 C   0  0  0  0  0  0  0  0  0  0  0  0
   -2.6396    3.8395   -2.7993 O   0  0  0  0  0  0  0  0  0  0  0  0
   -1.4584    2.6823   -1.1098 C   0  0  0  0  0  0  0  0  0  0  0  0
   -0.9810    2.6483    0.1820 C   0  0  0  0  0  0  0  0  0  0  0  0
    5.6796   -1.3411    3.2679 H   0  0  0  0  0  0  0  0  0  0  0  0
    5.9718   -2.2021    1.6771 H   0  0  0  0  0  0  0  0  0  0  0  0
    3.5417   -0.5186    2.4614 H   0  0  0  0  0  0  0  0  0  0  0  0
    4.5229   -2.0892   -0.0241 H   0  0  0  0  0  0  0  0  0  0  0  0
    2.6190   -3.3119    0.0122 H   0  0  0  0  0  0  0  0  0  0  0  0
    2.0828   -2.3748    1.4747 H   0  0  0  0  0  0  0  0  0  0  0  0
    2.0256   -2.4539   -2.1094 H   0  0  0  0  0  0  0  0  0  0  0  0
    1.1389   -0.9339   -2.3057 H   0  0  0  0  0  0  0  0  0  0  0  0
    4.0296   -1.4031   -2.0623 H   0  0  0  0  0  0  0  0  0  0  0  0
    3.1805    0.1382   -2.4942 H   0  0  0  0  0  0  0  0  0  0  0  0
    4.4843    0.3679   -0.2935 H   0  0  0  0  0  0  0  0  0  0  0  0
    2.1285    1.3050   -0.6198 H   0  0  0  0  0  0  0  0  0  0  0  0
    2.6333    1.1412    1.0633 H   0  0  0  0  0  0  0  0  0  0  0  0
    1.0368   -0.6310    1.3983 H   0  0  0  0  0  0  0  0  0  0  0  0
    0.2051    0.5525   -1.2427 H   0  0  0  0  0  0  0  0  0  0  0  0
   -1.0957   -1.6231   -1.6526 H   0  0  0  0  0  0  0  0  0  0  0  0
   -2.2485   -0.1964   -1.8052 H   0  0  0  0  0  0  0  0  0  0  0  0
   -2.5783   -3.2758   -2.0879 H   0  0  0  0  0  0  0  0  0  0  0  0
   -4.5085   -4.7014   -1.3111 H   0  0  0  0  0  0  0  0  0  0  0  0
   -5.9197   -3.9813    0.5567 H   0  0  0  0  0  0  0  0  0  0  0  0
   -5.4011   -1.8256    1.6518 H   0  0  0  0  0  0  0  0  0  0  0  0
   -3.4937   -0.4357    0.8689 H   0  0  0  0  0  0  0  0  0  0  0  0
    0.7754    0.8512    2.4469 H   0  0  0  0  0  0  0  0  0  0  0  0
    0.2980    2.7644    3.7491 H   0  0  0  0  0  0  0  0  0  0  0  0
   -2.0957    5.6653    1.2750 H   0  0  0  0  0  0  0  0  0  0  0  0
   -2.9491    5.7267   -1.0250 H   0  0  0  0  0  0  0  0  0  0  0  0
   -3.5224    3.5304   -3.1371 H   0  0  0  0  0  0  0  0  0  0  0  0
   -1.2644    1.8619   -1.7673 H   0  0  0  0  0  0  0  0  0  0  0  0
  1  2  2  3
  2  3  1  0
  3  4  1  0
  4  5  1  0
  5  6  1  0
  6  7  1  0
  7  8  1  0
  8  9  1  0
  9 10  1  0
 10 11  1  0
 11 12  1  0
 12 13  1  0
 13 14  1  0
 14 15  2  0
 15 16  1  0
 16 17  2  0
 17 18  1  0
 18 19  2  0
 11 20  1  0
 20 21  2  0
 21 22  1  0
 22 23  2  0
 23 24  1  0
 24 25  2  0
 25 26  1  0
 26 27  2  0
 27 28  1  0
 27 29  1  0
 29 30  2  0
  8  3  1  0
 19 14  1  0
 30 20  1  0
 10  5  1  0
 30 24  1  0
  1 31  1  0
  1 32  1  0
  2 33  1  0
  3 34  1  0
  4 35  1  0
  4 36  1  0
  6 37  1  0
  6 38  1  0
  7 39  1  0
  7 40  1  0
  8 41  1  0
  9 42  1  0
  9 43  1  0
 10 44  1  0
 11 45  1  6
 13 46  1  0
 13 47  1  0
 15 48  1  0
 16 49  1  0
 17 50  1  0
 18 51  1  0
 19 52  1  0
 21 53  1  0
 22 54  1  0
 25 55  1  0
 26 56  1  0
 28 57  1  0
 29 58  1  0
M  END
