
     RDKit          3D

 36 38  0  0  0  0  0  0  0  0999 V2000
   -2.1794   -2.7893   -0.0610 O   0  0  0  0  0  0  0  0  0  0  0  0
   -2.6269   -1.8195    0.8081 C   0  0  0  0  0  0  0  0  0  0  0  0
   -2.5947   -0.4955    0.1149 C   0  0  0  0  0  0  0  0  0  0  0  0
   -2.1661   -0.3661   -1.1965 C   0  0  0  0  0  0  0  0  0  0  0  0
   -2.1424    0.8617   -1.8214 C   0  0  0  0  0  0  0  0  0  0  0  0
   -1.6947    0.9364   -3.1634 N   0  0  0  0  0  0  0  0  0  0  0  0
   -0.4549    0.8253   -3.3828 N   0  0  0  0  0  0  0  0  0  0  0  0
    0.4105    0.6344   -2.2874 C   0  0  0  0  0  0  0  0  0  0  0  0
    0.6866    1.6376   -1.3900 C   0  0  0  0  0  0  0  0  0  0  0  0
    1.5342    1.4407   -0.3221 C   0  0  0  0  0  0  0  0  0  0  0  0
    2.1278    0.2250   -0.1291 C   0  0  0  0  0  0  0  0  0  0  0  0
    3.0348    0.0421    1.0282 C   0  0  0  0  0  0  0  0  0  0  0  0
    3.7141   -1.0949    1.3799 C   0  0  0  0  0  0  0  0  0  0  0  0
    4.4846   -1.0408    2.4707 C   0  0  0  0  0  0  0  0  0  0  0  0
    4.5312    0.1504    3.1484 C   0  0  0  0  0  0  0  0  0  0  0  0
    3.4962    1.1507    2.2356 S   0  0  0  0  0  0  0  0  0  0  0  0
    1.8737   -0.7956   -1.0050 C   0  0  0  0  0  0  0  0  0  0  0  0
    1.0101   -0.5855   -2.0882 C   0  0  0  0  0  0  0  0  0  0  0  0
    0.7507   -1.5832   -2.9596 F   0  0  0  0  0  0  0  0  0  0  0  0
   -2.5607    1.9490   -1.0907 C   0  0  0  0  0  0  0  0  0  0  0  0
   -2.9914    1.8379    0.2185 C   0  0  0  0  0  0  0  0  0  0  0  0
   -3.0152    0.6008    0.8479 C   0  0  0  0  0  0  0  0  0  0  0  0
   -3.4445    0.4605    2.1665 O   0  0  0  0  0  0  0  0  0  0  0  0
   -2.8622   -3.4908   -0.1514 H   0  0  0  0  0  0  0  0  0  0  0  0
   -3.6243   -2.0680    1.1774 H   0  0  0  0  0  0  0  0  0  0  0  0
   -1.9310   -1.8087    1.6789 H   0  0  0  0  0  0  0  0  0  0  0  0
   -1.8467   -1.2541   -1.7280 H   0  0  0  0  0  0  0  0  0  0  0  0
    0.2326    2.5976   -1.5223 H   0  0  0  0  0  0  0  0  0  0  0  0
    1.7214    2.2506    0.3532 H   0  0  0  0  0  0  0  0  0  0  0  0
    3.6117   -2.0175    0.7636 H   0  0  0  0  0  0  0  0  0  0  0  0
    5.0818   -1.9055    2.8495 H   0  0  0  0  0  0  0  0  0  0  0  0
    5.1147    0.3637    4.0632 H   0  0  0  0  0  0  0  0  0  0  0  0
    2.3379   -1.7814   -0.8721 H   0  0  0  0  0  0  0  0  0  0  0  0
   -2.5586    2.9305   -1.5410 H   0  0  0  0  0  0  0  0  0  0  0  0
   -3.3226    2.7026    0.7953 H   0  0  0  0  0  0  0  0  0  0  0  0
   -3.7382    1.2990    2.6454 H   0  0  0  0  0  0  0  0  0  0  0  0
  1  2  1  0
  2  3  1  0
  3  4  2  0
  4  5  1  0
  5  6  1  0
  6  7  2  0
  7  8  1  0
  8  9  2  0
  9 10  1  0
 10 11  2  0
 11 12  1  0
 12 13  2  0
 13 14  1  0
 14 15  2  0
 15 16  1  0
 11 17  1  0
 17 18  2  0
 18 19  1  0
  5 20  2  0
 20 21  1  0
 21 22  2  0
 22 23  1  0
 22  3  1  0
 18  8  1  0
 16 12  1  0
  1 24  1  0
  2 25  1  0
  2 26  1  0
  4 27  1  0
  9 28  1  0
 10 29  1  0
 13 30  1  0
 14 31  1  0
 15 32  1  0
 17 33  1  0
 20 34  1  0
 21 35  1  0
 23 36  1  0
M  END
