
     RDKit          3D

102111  0  0  0  0  0  0  0  0999 V2000
   -8.9112   -3.6233   -1.7249 C   0  0  0  0  0  0  0  0  0  0  0  0
   -8.0174   -2.5345   -1.1327 C   0  0  0  0  0  0  0  0  0  0  0  0
   -7.0434   -3.2089   -0.2297 C   0  0  0  0  0  0  0  0  0  0  0  0
   -8.8176   -1.4687   -0.5177 C   0  0  0  0  0  0  0  0  0  0  0  0
  -10.2064   -1.5676   -0.4146 C   0  0  0  0  0  0  0  0  0  0  0  0
  -10.9482   -0.5589    0.1619 C   0  0  0  0  0  0  0  0  0  0  0  0
  -10.3270    0.5716    0.6498 C   0  0  0  0  0  0  0  0  0  0  0  0
   -8.9374    0.6992    0.5613 C   0  0  0  0  0  0  0  0  0  0  0  0
   -8.2929    1.9291    1.0753 C   0  0  0  0  0  0  0  0  0  0  0  0
   -9.3396    2.7302    1.8392 C   0  0  0  0  0  0  0  0  0  0  0  0
   -7.8161    2.7785   -0.0956 C   0  0  0  0  0  0  0  0  0  0  0  0
   -8.2020   -0.3200   -0.0191 C   0  0  0  0  0  0  0  0  0  0  0  0
   -6.7811   -0.1785   -0.0855 N   0  0  0  0  0  0  0  0  0  0  0  0
   -6.1319    0.1999   -1.2870 C   0  0  0  0  0  0  0  0  0  0  0  0
   -6.7828    0.4444   -2.3257 O   0  0  0  0  0  0  0  0  0  0  0  0
   -4.6606    0.3195   -1.3564 C   0  0  0  0  0  0  0  0  0  0  0  0
   -4.0846    0.6759   -2.5636 C   0  0  0  0  0  0  0  0  0  0  0  0
   -2.7136    0.7632   -2.6060 C   0  0  0  0  0  0  0  0  0  0  0  0
   -1.9518    0.5060   -1.4917 C   0  0  0  0  0  0  0  0  0  0  0  0
   -0.5639    0.5986   -1.5893 C   0  0  0  0  0  0  0  0  0  0  0  0
    0.2556    0.3482   -0.5180 C   0  0  0  0  0  0  0  0  0  0  0  0
   -0.3017   -0.0102    0.7152 C   0  0  0  0  0  0  0  0  0  0  0  0
    0.4990   -0.2786    1.7951 C   0  0  0  0  0  0  0  0  0  0  0  0
    1.8649   -0.1876    1.6267 C   0  0  0  0  0  0  0  0  0  0  0  0
    2.7058   -0.4701    2.6993 C   0  0  0  0  0  0  0  0  0  0  0  0
    4.0692   -0.4075    2.5679 C   0  0  0  0  0  0  0  0  0  0  0  0
    4.6089   -0.0569    1.3451 C   0  0  0  0  0  0  0  0  0  0  0  0
    3.8000    0.2292    0.2668 C   0  0  0  0  0  0  0  0  0  0  0  0
    4.3596    0.5637   -0.9469 C   0  0  0  0  0  0  0  0  0  0  0  0
    3.5486    0.8393   -2.0383 C   0  0  0  0  0  0  0  0  0  0  0  0
    2.1857    0.7776   -1.9103 C   0  0  0  0  0  0  0  0  0  0  0  0
    1.6322    0.4425   -0.6976 C   0  0  0  0  0  0  0  0  0  0  0  0
    2.4283    0.1638    0.4107 C   0  0  0  0  0  0  0  0  0  0  0  0
    5.8132    0.6101   -1.1126 C   0  0  0  0  0  0  0  0  0  0  0  0
    6.2849    0.9116   -2.2152 O   0  0  0  0  0  0  0  0  0  0  0  0
    6.7042    0.3128   -0.0187 N   0  0  0  0  0  0  0  0  0  0  0  0
    8.0945    0.3093   -0.2369 C   0  0  0  0  0  0  0  0  0  0  0  0
    8.6616   -0.8500   -0.7674 C   0  0  0  0  0  0  0  0  0  0  0  0
    7.8633   -2.0348   -1.1123 C   0  0  0  0  0  0  0  0  0  0  0  0
    8.6546   -3.0373   -1.9343 C   0  0  0  0  0  0  0  0  0  0  0  0
    7.4058   -2.7721    0.1218 C   0  0  0  0  0  0  0  0  0  0  0  0
   10.0280   -0.9219   -1.0180 C   0  0  0  0  0  0  0  0  0  0  0  0
   10.8559    0.1437   -0.7518 C   0  0  0  0  0  0  0  0  0  0  0  0
   10.2877    1.2853   -0.2293 C   0  0  0  0  0  0  0  0  0  0  0  0
    8.9127    1.3796    0.0309 C   0  0  0  0  0  0  0  0  0  0  0  0
    8.4024    2.6535    0.5724 C   0  0  0  0  0  0  0  0  0  0  0  0
    9.5215    3.6991    0.4241 C   0  0  0  0  0  0  0  0  0  0  0  0
    8.0515    2.6274    2.0237 C   0  0  0  0  0  0  0  0  0  0  0  0
    6.0739   -0.0151    1.1977 C   0  0  0  0  0  0  0  0  0  0  0  0
    6.7971   -0.2826    2.1960 O   0  0  0  0  0  0  0  0  0  0  0  0
   -1.6791   -0.1027    0.8105 C   0  0  0  0  0  0  0  0  0  0  0  0
   -2.2782   -0.4622    1.9756 C   0  0  0  0  0  0  0  0  0  0  0  0
   -3.6626   -0.5607    2.0358 C   0  0  0  0  0  0  0  0  0  0  0  0
   -4.4658   -0.3068    0.9532 C   0  0  0  0  0  0  0  0  0  0  0  0
   -3.8807    0.0651   -0.2457 C   0  0  0  0  0  0  0  0  0  0  0  0
   -2.4957    0.1550   -0.2934 C   0  0  0  0  0  0  0  0  0  0  0  0
   -5.9279   -0.4299    1.0336 C   0  0  0  0  0  0  0  0  0  0  0  0
   -6.4457   -0.7671    2.1218 O   0  0  0  0  0  0  0  0  0  0  0  0
   -9.6774   -3.1884   -2.3878 H   0  0  0  0  0  0  0  0  0  0  0  0
   -9.4289   -4.2059   -0.9408 H   0  0  0  0  0  0  0  0  0  0  0  0
   -8.2782   -4.3662   -2.2784 H   0  0  0  0  0  0  0  0  0  0  0  0
   -7.4676   -2.1179   -1.9890 H   0  0  0  0  0  0  0  0  0  0  0  0
   -6.0155   -2.8713   -0.4896 H   0  0  0  0  0  0  0  0  0  0  0  0
   -7.2680   -3.0461    0.8502 H   0  0  0  0  0  0  0  0  0  0  0  0
   -7.0414   -4.3150   -0.4634 H   0  0  0  0  0  0  0  0  0  0  0  0
  -10.7064   -2.4673   -0.8013 H   0  0  0  0  0  0  0  0  0  0  0  0
  -12.0304   -0.6209    0.2475 H   0  0  0  0  0  0  0  0  0  0  0  0
  -10.9343    1.3421    1.0915 H   0  0  0  0  0  0  0  0  0  0  0  0
   -7.5017    1.6949    1.7948 H   0  0  0  0  0  0  0  0  0  0  0  0
   -9.7979    2.0680    2.5857 H   0  0  0  0  0  0  0  0  0  0  0  0
   -8.8061    3.5342    2.4097 H   0  0  0  0  0  0  0  0  0  0  0  0
  -10.0483    3.1611    1.1053 H   0  0  0  0  0  0  0  0  0  0  0  0
   -6.7124    2.7905   -0.1564 H   0  0  0  0  0  0  0  0  0  0  0  0
   -8.1972    2.3806   -1.0570 H   0  0  0  0  0  0  0  0  0  0  0  0
   -8.1564    3.8437    0.0326 H   0  0  0  0  0  0  0  0  0  0  0  0
   -4.7173    0.8689   -3.4086 H   0  0  0  0  0  0  0  0  0  0  0  0
   -2.2051    1.0387   -3.5278 H   0  0  0  0  0  0  0  0  0  0  0  0
   -0.1514    0.8740   -2.5301 H   0  0  0  0  0  0  0  0  0  0  0  0
    0.1318   -0.5553    2.7638 H   0  0  0  0  0  0  0  0  0  0  0  0
    2.2547   -0.7390    3.6398 H   0  0  0  0  0  0  0  0  0  0  0  0
    4.7211   -0.6211    3.3840 H   0  0  0  0  0  0  0  0  0  0  0  0
    4.0358    1.0992   -2.9673 H   0  0  0  0  0  0  0  0  0  0  0  0
    1.6209    1.0021   -2.7903 H   0  0  0  0  0  0  0  0  0  0  0  0
    6.9611   -1.8039   -1.7058 H   0  0  0  0  0  0  0  0  0  0  0  0
    9.1784   -2.5809   -2.7871 H   0  0  0  0  0  0  0  0  0  0  0  0
    7.9327   -3.7889   -2.3636 H   0  0  0  0  0  0  0  0  0  0  0  0
    9.3691   -3.6199   -1.3227 H   0  0  0  0  0  0  0  0  0  0  0  0
    6.3093   -2.6717    0.2948 H   0  0  0  0  0  0  0  0  0  0  0  0
    7.5415   -3.8861   -0.0017 H   0  0  0  0  0  0  0  0  0  0  0  0
    7.9287   -2.4220    1.0225 H   0  0  0  0  0  0  0  0  0  0  0  0
   10.4949   -1.8180   -1.4298 H   0  0  0  0  0  0  0  0  0  0  0  0
   11.9304    0.0714   -0.9522 H   0  0  0  0  0  0  0  0  0  0  0  0
   10.9668    2.1006   -0.0345 H   0  0  0  0  0  0  0  0  0  0  0  0
    7.5393    3.0661    0.0054 H   0  0  0  0  0  0  0  0  0  0  0  0
   10.2979    3.5688    1.1897 H   0  0  0  0  0  0  0  0  0  0  0  0
    9.1094    4.7354    0.5963 H   0  0  0  0  0  0  0  0  0  0  0  0
    9.8967    3.7246   -0.6211 H   0  0  0  0  0  0  0  0  0  0  0  0
    8.5772    1.7748    2.5191 H   0  0  0  0  0  0  0  0  0  0  0  0
    6.9596    2.6367    2.2296 H   0  0  0  0  0  0  0  0  0  0  0  0
    8.4601    3.5331    2.5171 H   0  0  0  0  0  0  0  0  0  0  0  0
   -1.6834   -0.6701    2.8504 H   0  0  0  0  0  0  0  0  0  0  0  0
   -4.0955   -0.8518    2.9905 H   0  0  0  0  0  0  0  0  0  0  0  0
  1  2  1  0
  2  3  1  0
  2  4  1  0
  4  5  2  0
  5  6  1  0
  6  7  2  0
  7  8  1  0
  8  9  1  0
  9 10  1  0
  9 11  1  0
  8 12  2  0
 12 13  1  0
 13 14  1  0
 14 15  2  0
 14 16  1  0
 16 17  2  0
 17 18  1  0
 18 19  2  0
 19 20  1  0
 20 21  2  0
 21 22  1  0
 22 23  2  0
 23 24  1  0
 24 25  2  0
 25 26  1  0
 26 27  2  0
 27 28  1  0
 28 29  1  0
 29 30  2  0
 30 31  1  0
 31 32  2  0
 32 33  1  0
 29 34  1  0
 34 35  2  0
 34 36  1  0
 36 37  1  0
 37 38  2  0
 38 39  1  0
 39 40  1  0
 39 41  1  0
 38 42  1  0
 42 43  2  0
 43 44  1  0
 44 45  2  0
 45 46  1  0
 46 47  1  0
 46 48  1  0
 36 49  1  0
 49 50  2  0
 22 51  1  0
 51 52  1  0
 52 53  2  0
 53 54  1  0
 54 55  2  0
 55 56  1  0
 54 57  1  0
 57 58  2  0
 12  4  1  0
 57 13  1  0
 55 16  1  0
 56 19  1  0
 32 21  1  0
 45 37  1  0
 56 51  2  0
 33 24  1  0
 49 27  1  0
 33 28  2  0
  1 59  1  0
  1 60  1  0
  1 61  1  0
  2 62  1  0
  3 63  1  0
  3 64  1  0
  3 65  1  0
  5 66  1  0
  6 67  1  0
  7 68  1  0
  9 69  1  0
 10 70  1  0
 10 71  1  0
 10 72  1  0
 11 73  1  0
 11 74  1  0
 11 75  1  0
 17 76  1  0
 18 77  1  0
 20 78  1  0
 23 79  1  0
 25 80  1  0
 26 81  1  0
 30 82  1  0
 31 83  1  0
 39 84  1  0
 40 85  1  0
 40 86  1  0
 40 87  1  0
 41 88  1  0
 41 89  1  0
 41 90  1  0
 42 91  1  0
 43 92  1  0
 44 93  1  0
 46 94  1  0
 47 95  1  0
 47 96  1  0
 47 97  1  0
 48 98  1  0
 48 99  1  0
 48100  1  0
 52101  1  0
 53102  1  0
M  END
