
     RDKit          3D

 33 35  0  0  0  0  0  0  0  0999 V2000
   -0.8270   -4.5738    1.0313 N   0  0  0  0  0  0  0  0  0  0  0  0
   -0.3278   -3.3749    0.9301 C   0  0  0  0  0  0  0  0  0  0  0  0
    0.2041   -2.1452    0.8127 C   0  0  0  0  0  0  0  0  0  0  0  0
   -0.5096   -1.0839    0.1795 C   0  0  0  0  0  0  0  0  0  0  0  0
   -1.8466   -1.4528   -0.2825 C   0  0  0  0  0  0  0  0  0  0  0  0
   -2.2365   -1.1197   -1.5906 C   0  0  0  0  0  0  0  0  0  0  0  0
   -3.4889   -1.4580   -2.0412 C   0  0  0  0  0  0  0  0  0  0  0  0
   -4.4086   -2.1280   -1.2487 C   0  0  0  0  0  0  0  0  0  0  0  0
   -4.0307   -2.4560    0.0328 C   0  0  0  0  0  0  0  0  0  0  0  0
   -2.7598   -2.1107    0.4853 C   0  0  0  0  0  0  0  0  0  0  0  0
    0.0215    0.1475    0.0327 C   0  0  0  0  0  0  0  0  0  0  0  0
    1.3003    0.4533    0.4916 C   0  0  0  0  0  0  0  0  0  0  0  0
    1.8933    1.7643    0.3064 C   0  0  0  0  0  0  0  0  0  0  0  0
    1.1881    2.8324   -0.2111 C   0  0  0  0  0  0  0  0  0  0  0  0
    1.7803    4.0631   -0.4106 C   0  0  0  0  0  0  0  0  0  0  0  0
    3.0982    4.2939   -0.1072 C   0  0  0  0  0  0  0  0  0  0  0  0
    3.8373    3.2408    0.4170 C   0  0  0  0  0  0  0  0  0  0  0  0
    3.2167    2.0206    0.6050 C   0  0  0  0  0  0  0  0  0  0  0  0
    1.9556   -0.5622    1.0869 N   0  0  0  0  0  0  0  0  0  0  0  0
    1.4610   -1.7811    1.2467 C   0  0  0  0  0  0  0  0  0  0  0  0
    2.3321   -2.9559    2.0170 S   0  0  0  0  0  0  0  0  0  0  0  0
   -1.5100   -0.5992   -2.1924 H   0  0  0  0  0  0  0  0  0  0  0  0
   -3.8054   -1.2132   -3.0487 H   0  0  0  0  0  0  0  0  0  0  0  0
   -5.3730   -2.3626   -1.6697 H   0  0  0  0  0  0  0  0  0  0  0  0
   -4.7512   -2.9755    0.6423 H   0  0  0  0  0  0  0  0  0  0  0  0
   -2.4663   -2.3737    1.5097 H   0  0  0  0  0  0  0  0  0  0  0  0
   -0.5702    0.9160   -0.4596 H   0  0  0  0  0  0  0  0  0  0  0  0
    0.1455    2.7111   -0.4664 H   0  0  0  0  0  0  0  0  0  0  0  0
    1.2166    4.9109   -0.8188 H   0  0  0  0  0  0  0  0  0  0  0  0
    3.6168    5.2105   -0.2410 H   0  0  0  0  0  0  0  0  0  0  0  0
    4.8727    3.3443    0.6842 H   0  0  0  0  0  0  0  0  0  0  0  0
    3.8302    1.2171    1.0068 H   0  0  0  0  0  0  0  0  0  0  0  0
    2.9411   -0.3991    1.4644 H   0  0  0  0  0  0  0  0  0  0  0  0
  1  2  3  0
  2  3  1  0
  3  4  2  0
  4  5  1  0
  5  6  2  0
  6  7  1  0
  7  8  2  0
  8  9  1  0
  9 10  2  0
  4 11  1  0
 11 12  2  0
 12 13  1  0
 13 14  2  0
 14 15  1  0
 15 16  2  0
 16 17  1  0
 17 18  2  0
 12 19  1  0
 19 20  1  0
 20 21  2  0
 20  3  1  0
 10  5  1  0
 18 13  1  0
  6 22  1  0
  7 23  1  0
  8 24  1  0
  9 25  1  0
 10 26  1  0
 11 27  1  0
 14 28  1  0
 15 29  1  0
 16 30  1  0
 17 31  1  0
 18 32  1  0
 19 33  1  0
M  END
