
     RDKit          3D

 41 43  0  0  0  0  0  0  0  0999 V2000
    7.0714    1.9576   -0.0807 C   0  0  0  0  0  0  0  0  0  0  0  0
    6.7064    0.5741   -0.0024 O   0  0  0  0  0  0  0  0  0  0  0  0
    5.3760    0.1788    0.0205 C   0  0  0  0  0  0  0  0  0  0  0  0
    4.3305    1.0670   -0.0319 C   0  0  0  0  0  0  0  0  0  0  0  0
    3.0292    0.5841   -0.0042 C   0  0  0  0  0  0  0  0  0  0  0  0
    2.7352   -0.7318    0.0729 C   0  0  0  0  0  0  0  0  0  0  0  0
    1.3791   -1.2965    0.0911 C   0  0  0  0  0  0  0  0  0  0  0  0
    0.3057   -0.5498    0.0500 C   0  0  0  0  0  0  0  0  0  0  0  0
   -1.0711   -1.0192    0.0582 C   0  0  0  0  0  0  0  0  0  0  0  0
   -2.1074   -0.1988    0.0114 N   0  0  0  0  0  0  0  0  0  0  0  0
   -3.3077   -0.8945    0.0269 C   0  0  0  0  0  0  0  0  0  0  0  0
   -4.5215   -0.3431   -0.0159 C   0  0  0  0  0  0  0  0  0  0  0  0
   -4.7916    1.0529   -0.0809 C   0  0  0  0  0  0  0  0  0  0  0  0
   -6.0899    1.4659    0.2511 C   0  0  0  0  0  0  0  0  0  0  0  0
   -6.4575    2.7905    0.2301 C   0  0  0  0  0  0  0  0  0  0  0  0
   -5.5495    3.7205   -0.1181 N   0  0  0  0  0  0  0  0  0  0  0  0
   -4.2906    3.3251   -0.4407 C   0  0  0  0  0  0  0  0  0  0  0  0
   -3.8893    1.9971   -0.4289 C   0  0  0  0  0  0  0  0  0  0  0  0
   -2.9702   -2.3016    0.0917 C   0  0  0  0  0  0  0  0  0  0  0  0
   -3.7783   -3.2465    0.1247 O   0  0  0  0  0  0  0  0  0  0  0  0
   -1.5200   -2.3458    0.1103 N   0  0  0  0  0  0  0  0  0  0  0  0
   -0.8109   -3.6136    0.1748 C   0  0  0  0  0  0  0  0  0  0  0  0
    3.8137   -1.6272    0.1262 C   0  0  0  0  0  0  0  0  0  0  0  0
    5.1166   -1.1788    0.1011 C   0  0  0  0  0  0  0  0  0  0  0  0
    8.1562    1.9971    0.1409 H   0  0  0  0  0  0  0  0  0  0  0  0
    6.8133    2.3882   -1.0802 H   0  0  0  0  0  0  0  0  0  0  0  0
    6.4604    2.4826    0.7010 H   0  0  0  0  0  0  0  0  0  0  0  0
    4.5406    2.1239   -0.0940 H   0  0  0  0  0  0  0  0  0  0  0  0
    2.2482    1.3185   -0.0522 H   0  0  0  0  0  0  0  0  0  0  0  0
    1.2793   -2.3737    0.1427 H   0  0  0  0  0  0  0  0  0  0  0  0
    0.4518    0.5415    0.0146 H   0  0  0  0  0  0  0  0  0  0  0  0
   -5.3318   -1.0948   -0.0029 H   0  0  0  0  0  0  0  0  0  0  0  0
   -6.8703    0.7486    0.5407 H   0  0  0  0  0  0  0  0  0  0  0  0
   -7.4703    3.0736    0.4913 H   0  0  0  0  0  0  0  0  0  0  0  0
   -3.6129    4.1086   -0.7061 H   0  0  0  0  0  0  0  0  0  0  0  0
   -2.8655    1.8055   -0.7073 H   0  0  0  0  0  0  0  0  0  0  0  0
   -1.5688   -4.4504    0.1902 H   0  0  0  0  0  0  0  0  0  0  0  0
   -0.2620   -3.7650   -0.7558 H   0  0  0  0  0  0  0  0  0  0  0  0
   -0.2361   -3.7355    1.1132 H   0  0  0  0  0  0  0  0  0  0  0  0
    3.6118   -2.6799    0.1906 H   0  0  0  0  0  0  0  0  0  0  0  0
    5.9477   -1.8552    0.1413 H   0  0  0  0  0  0  0  0  0  0  0  0
  1  2  1  0
  2  3  1  0
  3  4  2  0
  4  5  1  0
  5  6  2  0
  6  7  1  0
  7  8  2  0
  8  9  1  0
  9 10  2  0
 10 11  1  0
 11 12  2  0
 12 13  1  0
 13 14  2  0
 14 15  1  0
 15 16  2  0
 16 17  1  0
 17 18  2  0
 11 19  1  0
 19 20  2  0
 19 21  1  0
 21 22  1  0
  6 23  1  0
 23 24  2  0
 24  3  1  0
 21  9  1  0
 18 13  1  0
  1 25  1  0
  1 26  1  0
  1 27  1  0
  4 28  1  0
  5 29  1  0
  7 30  1  0
  8 31  1  0
 12 32  1  0
 14 33  1  0
 15 34  1  0
 17 35  1  0
 18 36  1  0
 22 37  1  0
 22 38  1  0
 22 39  1  0
 23 40  1  0
 24 41  1  0
M  END
