
     RDKit          3D

112118  0  0  0  0  0  0  0  0999 V2000
   14.3259    2.4552    0.5444 C   0  0  0  0  0  0  0  0  0  0  0  0
   13.4153    1.3476    1.1660 C   0  0  0  0  0  0  0  0  0  0  0  0
   13.8890    0.0491    0.6627 C   0  0  0  0  0  0  0  0  0  0  0  0
   13.3145   -1.2157    1.1421 C   0  0  0  0  0  0  0  0  0  0  0  0
   11.8497   -1.4902    0.9958 C   0  0  0  0  0  0  0  0  0  0  0  0
   10.9426   -0.6561    1.8185 C   0  0  0  0  0  0  0  0  0  0  0  0
    9.4805   -0.8007    1.6955 C   0  0  0  0  0  0  0  0  0  0  0  0
    8.7431   -0.4165    0.4922 C   0  0  0  0  0  0  0  0  0  0  0  0
    9.0337   -1.1213   -0.7659 C   0  0  0  0  0  0  0  0  0  0  0  0
    8.1571   -0.5942   -1.9143 C   0  0  0  0  0  0  0  0  0  0  0  0
    6.7211   -0.6449   -1.6937 C   0  0  0  0  0  0  0  0  0  0  0  0
    6.0490   -1.9752   -1.4748 C   0  0  0  0  0  0  0  0  0  0  0  0
    4.6352   -1.6070   -1.2698 N   0  0  0  0  0  0  0  0  0  0  0  0
    4.2215   -1.3628    0.0618 C   0  0  0  0  0  0  0  0  0  0  0  0
    4.9899   -1.5376    1.0229 O   0  0  0  0  0  0  0  0  0  0  0  0
    2.8533   -0.8919    0.3241 C   0  0  0  0  0  0  0  0  0  0  0  0
    2.4591   -0.6347    1.6071 C   0  0  0  0  0  0  0  0  0  0  0  0
    1.1945   -0.1682    1.8864 C   0  0  0  0  0  0  0  0  0  0  0  0
    0.3284    0.0367    0.8339 C   0  0  0  0  0  0  0  0  0  0  0  0
   -0.9279    0.5558    1.1024 C   0  0  0  0  0  0  0  0  0  0  0  0
   -1.3035    0.8551    2.3878 C   0  0  0  0  0  0  0  0  0  0  0  0
   -2.5299    1.4149    2.6660 C   0  0  0  0  0  0  0  0  0  0  0  0
   -3.3879    1.6758    1.6234 C   0  0  0  0  0  0  0  0  0  0  0  0
   -3.0204    1.3769    0.3245 C   0  0  0  0  0  0  0  0  0  0  0  0
   -3.8757    1.6485   -0.7284 C   0  0  0  0  0  0  0  0  0  0  0  0
   -3.5122    1.3614   -2.0245 C   0  0  0  0  0  0  0  0  0  0  0  0
   -2.2857    0.7968   -2.3219 C   0  0  0  0  0  0  0  0  0  0  0  0
   -1.4095    0.5174   -1.2951 C   0  0  0  0  0  0  0  0  0  0  0  0
   -0.1546   -0.0003   -1.5330 C   0  0  0  0  0  0  0  0  0  0  0  0
    0.2185   -0.2363   -2.8315 C   0  0  0  0  0  0  0  0  0  0  0  0
    1.5067   -0.7073   -3.0677 C   0  0  0  0  0  0  0  0  0  0  0  0
    2.3640   -0.9249   -2.0290 C   0  0  0  0  0  0  0  0  0  0  0  0
    1.9894   -0.6941   -0.7309 C   0  0  0  0  0  0  0  0  0  0  0  0
    0.7127   -0.2222   -0.4682 C   0  0  0  0  0  0  0  0  0  0  0  0
    3.7246   -1.3980   -2.3359 C   0  0  0  0  0  0  0  0  0  0  0  0
    4.0559   -1.6074   -3.5129 O   0  0  0  0  0  0  0  0  0  0  0  0
   -1.7808    0.8081    0.0252 C   0  0  0  0  0  0  0  0  0  0  0  0
   -5.1720    2.2685   -0.4531 C   0  0  0  0  0  0  0  0  0  0  0  0
   -5.9890    2.5387   -1.3903 O   0  0  0  0  0  0  0  0  0  0  0  0
   -5.6153    2.6128    0.8686 N   0  0  0  0  0  0  0  0  0  0  0  0
   -6.8535    3.2792    1.0860 C   0  0  0  0  0  0  0  0  0  0  0  0
   -8.1006    2.5498    1.3590 C   0  0  0  0  0  0  0  0  0  0  0  0
   -8.5321    1.5036    0.3584 C   0  0  0  0  0  0  0  0  0  0  0  0
   -7.7309    0.2609    0.3911 C   0  0  0  0  0  0  0  0  0  0  0  0
   -7.8781   -0.7499   -0.6674 C   0  0  0  0  0  0  0  0  0  0  0  0
   -9.1609   -1.3589   -1.0197 C   0  0  0  0  0  0  0  0  0  0  0  0
  -10.1937   -0.4780   -1.6388 C   0  0  0  0  0  0  0  0  0  0  0  0
  -11.3657   -1.3228   -2.0108 C   0  0  0  0  0  0  0  0  0  0  0  0
  -12.0160   -2.0699   -0.9440 C   0  0  0  0  0  0  0  0  0  0  0  0
  -12.7469   -1.4373    0.1590 C   0  0  0  0  0  0  0  0  0  0  0  0
  -12.0133   -0.4975    1.0458 C   0  0  0  0  0  0  0  0  0  0  0  0
  -12.9418   -0.0195    2.1857 C   0  0  0  0  0  0  0  0  0  0  0  0
   -4.6984    2.3021    1.9085 C   0  0  0  0  0  0  0  0  0  0  0  0
   -5.0281    2.5741    3.0821 O   0  0  0  0  0  0  0  0  0  0  0  0
   15.3369    2.2699    0.8911 H   0  0  0  0  0  0  0  0  0  0  0  0
   13.8862    3.3962    0.9528 H   0  0  0  0  0  0  0  0  0  0  0  0
   14.1545    2.3764   -0.5316 H   0  0  0  0  0  0  0  0  0  0  0  0
   12.4132    1.6379    0.6934 H   0  0  0  0  0  0  0  0  0  0  0  0
   13.3763    1.5262    2.2178 H   0  0  0  0  0  0  0  0  0  0  0  0
   15.0274   -0.0002    0.6065 H   0  0  0  0  0  0  0  0  0  0  0  0
   13.6508    0.0736   -0.4766 H   0  0  0  0  0  0  0  0  0  0  0  0
   13.8274   -2.0495    0.5489 H   0  0  0  0  0  0  0  0  0  0  0  0
   13.5490   -1.4052    2.2397 H   0  0  0  0  0  0  0  0  0  0  0  0
   11.7626   -2.5817    1.4211 H   0  0  0  0  0  0  0  0  0  0  0  0
   11.5711   -1.6691   -0.0504 H   0  0  0  0  0  0  0  0  0  0  0  0
   11.1859    0.4196    1.8281 H   0  0  0  0  0  0  0  0  0  0  0  0
   11.1683   -0.9245    2.9444 H   0  0  0  0  0  0  0  0  0  0  0  0
    9.1847   -1.8960    1.9081 H   0  0  0  0  0  0  0  0  0  0  0  0
    8.9674   -0.2824    2.5825 H   0  0  0  0  0  0  0  0  0  0  0  0
    8.8845    0.7107    0.3691 H   0  0  0  0  0  0  0  0  0  0  0  0
    7.6365   -0.4806    0.7641 H   0  0  0  0  0  0  0  0  0  0  0  0
   10.0570   -0.7430   -1.1135 H   0  0  0  0  0  0  0  0  0  0  0  0
    9.0626   -2.1893   -0.7740 H   0  0  0  0  0  0  0  0  0  0  0  0
    8.4712    0.4055   -2.2365 H   0  0  0  0  0  0  0  0  0  0  0  0
    8.4141   -1.2733   -2.7789 H   0  0  0  0  0  0  0  0  0  0  0  0
    6.2192   -0.2284   -2.6271 H   0  0  0  0  0  0  0  0  0  0  0  0
    6.3777    0.1032   -0.9060 H   0  0  0  0  0  0  0  0  0  0  0  0
    6.4307   -2.5731   -0.6556 H   0  0  0  0  0  0  0  0  0  0  0  0
    6.1224   -2.5791   -2.3988 H   0  0  0  0  0  0  0  0  0  0  0  0
    3.1834   -0.8164    2.3959 H   0  0  0  0  0  0  0  0  0  0  0  0
    0.8995    0.0262    2.8820 H   0  0  0  0  0  0  0  0  0  0  0  0
   -0.6915    0.6776    3.2432 H   0  0  0  0  0  0  0  0  0  0  0  0
   -2.8430    1.6597    3.6795 H   0  0  0  0  0  0  0  0  0  0  0  0
   -4.1944    1.5816   -2.8241 H   0  0  0  0  0  0  0  0  0  0  0  0
   -2.0131    0.5755   -3.3288 H   0  0  0  0  0  0  0  0  0  0  0  0
   -0.4270   -0.0791   -3.6563 H   0  0  0  0  0  0  0  0  0  0  0  0
    1.8523   -0.9079   -4.0740 H   0  0  0  0  0  0  0  0  0  0  0  0
   -6.6881    4.0829    1.9059 H   0  0  0  0  0  0  0  0  0  0  0  0
   -7.0798    3.9835    0.2011 H   0  0  0  0  0  0  0  0  0  0  0  0
   -8.9661    3.2733    1.4339 H   0  0  0  0  0  0  0  0  0  0  0  0
   -8.0830    2.0945    2.3964 H   0  0  0  0  0  0  0  0  0  0  0  0
   -8.5654    1.9470   -0.6470 H   0  0  0  0  0  0  0  0  0  0  0  0
   -9.6250    1.2627    0.6282 H   0  0  0  0  0  0  0  0  0  0  0  0
   -6.6571    0.3853    0.6246 H   0  0  0  0  0  0  0  0  0  0  0  0
   -8.0959   -0.3161    1.3699 H   0  0  0  0  0  0  0  0  0  0  0  0
   -7.1838   -1.6218   -0.3658 H   0  0  0  0  0  0  0  0  0  0  0  0
   -7.3258   -0.3898   -1.6205 H   0  0  0  0  0  0  0  0  0  0  0  0
   -9.0347   -2.2611   -1.7048 H   0  0  0  0  0  0  0  0  0  0  0  0
   -9.5941   -1.8534   -0.0893 H   0  0  0  0  0  0  0  0  0  0  0  0
   -9.6770   -0.1519   -2.6463 H   0  0  0  0  0  0  0  0  0  0  0  0
  -10.4391    0.4594   -1.2088 H   0  0  0  0  0  0  0  0  0  0  0  0
  -12.1187   -0.5999   -2.4555 H   0  0  0  0  0  0  0  0  0  0  0  0
  -11.0337   -2.0049   -2.8610 H   0  0  0  0  0  0  0  0  0  0  0  0
  -11.2891   -2.8568   -0.4877 H   0  0  0  0  0  0  0  0  0  0  0  0
  -12.7253   -2.8256   -1.4844 H   0  0  0  0  0  0  0  0  0  0  0  0
  -13.6643   -0.9171   -0.2786 H   0  0  0  0  0  0  0  0  0  0  0  0
  -13.2281   -2.2188    0.8228 H   0  0  0  0  0  0  0  0  0  0  0  0
  -11.1160   -0.9242    1.4795 H   0  0  0  0  0  0  0  0  0  0  0  0
  -11.7771    0.4319    0.4748 H   0  0  0  0  0  0  0  0  0  0  0  0
  -12.7162   -0.5848    3.1010 H   0  0  0  0  0  0  0  0  0  0  0  0
  -12.7735    1.0598    2.3764 H   0  0  0  0  0  0  0  0  0  0  0  0
  -13.9979   -0.1624    1.9213 H   0  0  0  0  0  0  0  0  0  0  0  0
  1  2  1  0
  2  3  1  0
  3  4  1  0
  4  5  1  0
  5  6  1  0
  6  7  1  0
  7  8  1  0
  8  9  1  0
  9 10  1  0
 10 11  1  0
 11 12  1  0
 12 13  1  0
 13 14  1  0
 14 15  2  0
 14 16  1  0
 16 17  2  0
 17 18  1  0
 18 19  2  0
 19 20  1  0
 20 21  2  0
 21 22  1  0
 22 23  2  0
 23 24  1  0
 24 25  1  0
 25 26  2  0
 26 27  1  0
 27 28  2  0
 28 29  1  0
 29 30  2  0
 30 31  1  0
 31 32  2  0
 32 33  1  0
 33 34  2  0
 32 35  1  0
 35 36  2  0
 28 37  1  0
 25 38  1  0
 38 39  2  0
 38 40  1  0
 40 41  1  0
 41 42  1  0
 42 43  1  0
 43 44  1  0
 44 45  1  0
 45 46  1  0
 46 47  1  0
 47 48  1  0
 48 49  1  0
 49 50  1  0
 50 51  1  0
 51 52  1  0
 40 53  1  0
 53 54  2  0
 35 13  1  0
 33 16  1  0
 34 19  1  0
 37 20  1  0
 53 23  1  0
 37 24  2  0
 34 29  1  0
  1 55  1  0
  1 56  1  0
  1 57  1  0
  2 58  1  0
  2 59  1  0
  3 60  1  0
  3 61  1  0
  4 62  1  0
  4 63  1  0
  5 64  1  0
  5 65  1  0
  6 66  1  0
  6 67  1  0
  7 68  1  0
  7 69  1  0
  8 70  1  0
  8 71  1  0
  9 72  1  0
  9 73  1  0
 10 74  1  0
 10 75  1  0
 11 76  1  0
 11 77  1  0
 12 78  1  0
 12 79  1  0
 17 80  1  0
 18 81  1  0
 21 82  1  0
 22 83  1  0
 26 84  1  0
 27 85  1  0
 30 86  1  0
 31 87  1  0
 41 88  1  0
 41 89  1  0
 42 90  1  0
 42 91  1  0
 43 92  1  0
 43 93  1  0
 44 94  1  0
 44 95  1  0
 45 96  1  0
 45 97  1  0
 46 98  1  0
 46 99  1  0
 47100  1  0
 47101  1  0
 48102  1  0
 48103  1  0
 49104  1  0
 49105  1  0
 50106  1  0
 50107  1  0
 51108  1  0
 51109  1  0
 52110  1  0
 52111  1  0
 52112  1  0
M  END
