
     RDKit          3D

 28 30  0  0  0  0  0  0  0  0999 V2000
   -1.9677    2.9075    0.0051 N   0  0  0  0  0  0  0  0  0  0  0  0
   -2.0380    1.4914   -0.0240 C   0  0  0  0  0  0  0  0  0  0  0  0
   -3.2881    0.8609   -0.0698 C   0  0  0  0  0  0  0  0  0  0  0  0
   -3.3526   -0.5179   -0.0981 C   0  0  0  0  0  0  0  0  0  0  0  0
   -2.1723   -1.2574   -0.0806 C   0  0  0  0  0  0  0  0  0  0  0  0
   -2.1893   -2.6778   -0.1083 N   0  0  0  0  0  0  0  0  0  0  0  0
   -0.9557   -0.6159   -0.0355 C   0  0  0  0  0  0  0  0  0  0  0  0
   -0.8611    0.7716   -0.0062 C   0  0  0  0  0  0  0  0  0  0  0  0
    0.4477    1.3942    0.0410 C   0  0  0  0  0  0  0  0  0  0  0  0
    0.4811    2.6608    0.0663 O   0  0  0  0  0  0  0  0  0  0  0  0
    1.6761    0.6063    0.0589 C   0  0  0  0  0  0  0  0  0  0  0  0
    2.8780    1.2594    0.1039 C   0  0  0  0  0  0  0  0  0  0  0  0
    4.0231    0.4756    0.1196 C   0  0  0  0  0  0  0  0  0  0  0  0
    3.9525   -0.9021    0.0912 C   0  0  0  0  0  0  0  0  0  0  0  0
    2.7071   -1.5247    0.0457 C   0  0  0  0  0  0  0  0  0  0  0  0
    1.5586   -0.7633    0.0294 C   0  0  0  0  0  0  0  0  0  0  0  0
    0.2580   -1.4429   -0.0187 C   0  0  0  0  0  0  0  0  0  0  0  0
    0.1888   -2.7080   -0.0449 O   0  0  0  0  0  0  0  0  0  0  0  0
   -2.3041    3.4476   -0.8140 H   0  0  0  0  0  0  0  0  0  0  0  0
   -1.5922    3.4396    0.8137 H   0  0  0  0  0  0  0  0  0  0  0  0
   -4.1933    1.4459   -0.0829 H   0  0  0  0  0  0  0  0  0  0  0  0
   -4.2801   -1.0724   -0.1337 H   0  0  0  0  0  0  0  0  0  0  0  0
   -2.4614   -3.2340    0.7142 H   0  0  0  0  0  0  0  0  0  0  0  0
   -1.9218   -3.2215   -0.9796 H   0  0  0  0  0  0  0  0  0  0  0  0
    2.9349    2.3549    0.1265 H   0  0  0  0  0  0  0  0  0  0  0  0
    5.0033    0.9176    0.1545 H   0  0  0  0  0  0  0  0  0  0  0  0
    4.8627   -1.4981    0.1042 H   0  0  0  0  0  0  0  0  0  0  0  0
    2.6057   -2.5973    0.0223 H   0  0  0  0  0  0  0  0  0  0  0  0
  1  2  1  0
  2  3  2  0
  3  4  1  0
  4  5  2  0
  5  6  1  0
  5  7  1  0
  7  8  2  0
  8  9  1  0
  9 10  2  0
  9 11  1  0
 11 12  2  0
 12 13  1  0
 13 14  2  0
 14 15  1  0
 15 16  2  0
 16 17  1  0
 17 18  2  0
  8  2  1  0
 16 11  1  0
 17  7  1  0
  1 19  1  0
  1 20  1  0
  3 21  1  0
  4 22  1  0
  6 23  1  0
  6 24  1  0
 12 25  1  0
 13 26  1  0
 14 27  1  0
 15 28  1  0
M  END
