
     RDKit          3D

 32 34  0  0  0  0  0  0  0  0999 V2000
    7.7563   -1.3194   -0.0636 O   0  0  0  0  0  0  0  0  0  0  0  0
    7.2856   -0.1845   -0.2878 C   0  0  0  0  0  0  0  0  0  0  0  0
    5.8347    0.0446   -0.2343 C   0  0  0  0  0  0  0  0  0  0  0  0
    5.1541    1.2075   -0.4496 C   0  0  0  0  0  0  0  0  0  0  0  0
    3.8208    1.1798   -0.3462 C   0  0  0  0  0  0  0  0  0  0  0  0
    3.2479   -0.0230   -0.0306 C   0  0  0  0  0  0  0  0  0  0  0  0
    1.8021   -0.3125    0.1406 C   0  0  0  0  0  0  0  0  0  0  0  0
    1.2340   -1.5132    0.4554 C   0  0  0  0  0  0  0  0  0  0  0  0
   -0.1018   -1.5507    0.5613 C   0  0  0  0  0  0  0  0  0  0  0  0
   -0.7829   -0.3817    0.3447 C   0  0  0  0  0  0  0  0  0  0  0  0
   -2.2342   -0.1511    0.3979 C   0  0  0  0  0  0  0  0  0  0  0  0
   -3.0854   -1.1158    0.6795 C   0  0  0  0  0  0  0  0  0  0  0  0
   -4.5387   -0.7724    0.7072 C   0  0  0  0  0  0  0  0  0  0  0  0
   -4.9506    0.1192   -0.4147 C   0  0  0  0  0  0  0  0  0  0  0  0
   -3.9644    1.1969   -0.7452 C   0  0  0  0  0  0  0  0  0  0  0  0
   -2.7494    1.2010    0.1276 C   0  0  0  0  0  0  0  0  0  0  0  0
    0.4620    0.7283    0.0013 S   0  0  0  0  0  0  0  0  0  0  0  0
    4.5872   -1.0655    0.1093 S   0  0  0  0  0  0  0  0  0  0  0  0
    7.9440    0.6253   -0.5202 H   0  0  0  0  0  0  0  0  0  0  0  0
    5.7116    2.1329   -0.7009 H   0  0  0  0  0  0  0  0  0  0  0  0
    3.1514    2.0576   -0.4974 H   0  0  0  0  0  0  0  0  0  0  0  0
    1.8753   -2.4054    0.6119 H   0  0  0  0  0  0  0  0  0  0  0  0
   -0.6819   -2.4716    0.8132 H   0  0  0  0  0  0  0  0  0  0  0  0
   -2.7172   -2.1043    0.8778 H   0  0  0  0  0  0  0  0  0  0  0  0
   -4.8215   -0.3217    1.6681 H   0  0  0  0  0  0  0  0  0  0  0  0
   -5.0936   -1.7359    0.6330 H   0  0  0  0  0  0  0  0  0  0  0  0
   -5.1805   -0.4739   -1.3383 H   0  0  0  0  0  0  0  0  0  0  0  0
   -5.9197    0.6090   -0.1133 H   0  0  0  0  0  0  0  0  0  0  0  0
   -4.4328    2.2165   -0.6728 H   0  0  0  0  0  0  0  0  0  0  0  0
   -3.6067    1.0709   -1.8074 H   0  0  0  0  0  0  0  0  0  0  0  0
   -1.9847    1.8336   -0.3586 H   0  0  0  0  0  0  0  0  0  0  0  0
   -3.0213    1.6794    1.0898 H   0  0  0  0  0  0  0  0  0  0  0  0
  1  2  2  0
  2  3  1  0
  3  4  2  0
  4  5  1  0
  5  6  2  0
  6  7  1  0
  7  8  2  0
  8  9  1  0
  9 10  2  0
 10 11  1  0
 11 12  2  0
 12 13  1  0
 13 14  1  0
 14 15  1  0
 15 16  1  0
 10 17  1  0
  6 18  1  0
 18  3  1  0
 17  7  1  0
 16 11  1  0
  2 19  1  0
  4 20  1  0
  5 21  1  0
  8 22  1  0
  9 23  1  0
 12 24  1  0
 13 25  1  0
 13 26  1  0
 14 27  1  0
 14 28  1  0
 15 29  1  0
 15 30  1  0
 16 31  1  0
 16 32  1  0
M  END
