
     RDKit          3D

 50 53  0  0  0  0  0  0  0  0999 V2000
   -1.3845    6.5868   -1.8429 C   0  0  0  0  0  0  0  0  0  0  0  0
   -1.7193    5.8679   -0.6725 O   0  0  0  0  0  0  0  0  0  0  0  0
   -1.1623    4.5982   -0.5302 C   0  0  0  0  0  0  0  0  0  0  0  0
   -0.3237    4.0279   -1.4522 C   0  0  0  0  0  0  0  0  0  0  0  0
    0.2045    2.7587   -1.2620 C   0  0  0  0  0  0  0  0  0  0  0  0
   -0.0967    2.0309   -0.1412 C   0  0  0  0  0  0  0  0  0  0  0  0
    0.4841    0.6864    0.0229 C   0  0  0  0  0  0  0  0  0  0  0  0
    1.7829    0.3457    0.1076 N   0  0  0  0  0  0  0  0  0  0  0  0
    1.9051   -0.9777    0.2522 C   0  0  0  0  0  0  0  0  0  0  0  0
    3.1177   -1.7975    0.3840 C   0  0  0  0  0  0  0  0  0  0  0  0
    4.3590   -1.1816    0.3658 C   0  0  0  0  0  0  0  0  0  0  0  0
    5.5021   -1.9397    0.4884 C   0  0  0  0  0  0  0  0  0  0  0  0
    5.4864   -3.3119    0.6322 C   0  0  0  0  0  0  0  0  0  0  0  0
    6.7087   -4.0953    0.7607 C   0  0  0  0  0  0  0  0  0  0  0  0
    7.8349   -3.5463    0.7462 O   0  0  0  0  0  0  0  0  0  0  0  0
    6.6542   -5.4680    0.9023 O   0  0  0  0  0  0  0  0  0  0  0  0
    4.2332   -3.8963    0.6468 C   0  0  0  0  0  0  0  0  0  0  0  0
    3.0797   -3.1533    0.5253 C   0  0  0  0  0  0  0  0  0  0  0  0
    0.6718   -1.5100    0.2623 N   0  0  0  0  0  0  0  0  0  0  0  0
   -0.2202   -0.4958    0.1216 C   0  0  0  0  0  0  0  0  0  0  0  0
   -1.6677   -0.6652    0.0845 C   0  0  0  0  0  0  0  0  0  0  0  0
   -2.4307   -0.3369   -1.0200 C   0  0  0  0  0  0  0  0  0  0  0  0
   -3.8032   -0.5038   -1.0388 C   0  0  0  0  0  0  0  0  0  0  0  0
   -4.4463   -1.0152    0.0775 C   0  0  0  0  0  0  0  0  0  0  0  0
   -5.8079   -1.1825    0.0628 O   0  0  0  0  0  0  0  0  0  0  0  0
   -6.5517   -1.6932    1.1437 C   0  0  0  0  0  0  0  0  0  0  0  0
   -3.7067   -1.3504    1.1921 C   0  0  0  0  0  0  0  0  0  0  0  0
   -2.3194   -1.1731    1.1888 C   0  0  0  0  0  0  0  0  0  0  0  0
   -0.9376    2.5909    0.7936 C   0  0  0  0  0  0  0  0  0  0  0  0
   -1.4586    3.8477    0.6020 C   0  0  0  0  0  0  0  0  0  0  0  0
   -1.5543    5.9274   -2.7409 H   0  0  0  0  0  0  0  0  0  0  0  0
   -0.3172    6.8866   -1.8785 H   0  0  0  0  0  0  0  0  0  0  0  0
   -2.0409    7.4839   -1.9601 H   0  0  0  0  0  0  0  0  0  0  0  0
   -0.0706    4.5837   -2.3470 H   0  0  0  0  0  0  0  0  0  0  0  0
    0.8610    2.3560   -2.0207 H   0  0  0  0  0  0  0  0  0  0  0  0
    4.4366   -0.1085    0.2557 H   0  0  0  0  0  0  0  0  0  0  0  0
    6.4989   -1.4809    0.4775 H   0  0  0  0  0  0  0  0  0  0  0  0
    7.3853   -6.0181    1.3423 H   0  0  0  0  0  0  0  0  0  0  0  0
    4.1903   -4.9904    0.7605 H   0  0  0  0  0  0  0  0  0  0  0  0
    2.1216   -3.6514    0.5417 H   0  0  0  0  0  0  0  0  0  0  0  0
    0.4240   -2.5240    0.3602 H   0  0  0  0  0  0  0  0  0  0  0  0
   -1.9379    0.0630   -1.8962 H   0  0  0  0  0  0  0  0  0  0  0  0
   -4.3941   -0.2400   -1.9194 H   0  0  0  0  0  0  0  0  0  0  0  0
   -6.0367   -2.5098    1.6756 H   0  0  0  0  0  0  0  0  0  0  0  0
   -7.5392   -2.0541    0.7811 H   0  0  0  0  0  0  0  0  0  0  0  0
   -6.7607   -0.8938    1.9089 H   0  0  0  0  0  0  0  0  0  0  0  0
   -4.1881   -1.7486    2.0684 H   0  0  0  0  0  0  0  0  0  0  0  0
   -1.7492   -1.4403    2.0708 H   0  0  0  0  0  0  0  0  0  0  0  0
   -1.1969    2.0304    1.7023 H   0  0  0  0  0  0  0  0  0  0  0  0
   -2.1199    4.2815    1.3429 H   0  0  0  0  0  0  0  0  0  0  0  0
  1  2  1  0
  2  3  1  0
  3  4  2  0
  4  5  1  0
  5  6  2  0
  6  7  1  0
  7  8  1  0
  8  9  2  0
  9 10  1  0
 10 11  2  0
 11 12  1  0
 12 13  2  0
 13 14  1  0
 14 15  2  0
 14 16  1  0
 13 17  1  0
 17 18  2  0
  9 19  1  0
 19 20  1  0
 20 21  1  0
 21 22  2  0
 22 23  1  0
 23 24  2  0
 24 25  1  0
 25 26  1  0
 24 27  1  0
 27 28  2  0
  6 29  1  0
 29 30  2  0
 30  3  1  0
 20  7  2  0
 28 21  1  0
 18 10  1  0
  1 31  1  0
  1 32  1  0
  1 33  1  0
  4 34  1  0
  5 35  1  0
 11 36  1  0
 12 37  1  0
 16 38  1  0
 17 39  1  0
 18 40  1  0
 19 41  1  0
 22 42  1  0
 23 43  1  0
 26 44  1  0
 26 45  1  0
 26 46  1  0
 27 47  1  0
 28 48  1  0
 29 49  1  0
 30 50  1  0
M  END
