
     RDKit          3D

 35 37  0  0  0  0  0  0  0  0999 V2000
   -0.0184   -2.8503   -1.1156 C   0  0  0  0  0  0  0  0  0  0  0  0
    0.0023   -1.4955   -0.5707 N   0  0  0  0  0  0  0  0  0  0  0  0
    1.1706   -0.7956   -0.5393 C   0  0  0  0  0  0  0  0  0  0  0  0
    2.3592   -1.3424   -0.9733 C   0  0  0  0  0  0  0  0  0  0  0  0
    3.5196   -0.6391   -0.9303 C   0  0  0  0  0  0  0  0  0  0  0  0
    3.5205    0.6474   -0.4445 C   0  0  0  0  0  0  0  0  0  0  0  0
    5.0100    1.5682   -0.3832 S   0  0  0  0  0  6  0  0  0  0  0  0
    5.9386    1.0620   -1.4707 O   0  0  0  0  0  0  0  0  0  0  0  0
    4.7325    3.0487   -0.6003 O   0  0  0  0  0  0  0  0  0  0  0  0
    5.7723    1.3189    1.0866 O   0  0  0  0  0  0  0  0  0  0  0  0
    2.3439    1.2358    0.0042 C   0  0  0  0  0  0  0  0  0  0  0  0
    1.1702    0.5073   -0.0456 C   0  0  0  0  0  0  0  0  0  0  0  0
    0.0138    1.0914    0.4080 C   0  0  0  0  0  0  0  0  0  0  0  0
    0.0464    2.2580    0.8425 O   0  0  0  0  0  0  0  0  0  0  0  0
   -1.1681    0.3899    0.3807 C   0  0  0  0  0  0  0  0  0  0  0  0
   -2.3468    0.9484    0.8396 C   0  0  0  0  0  0  0  0  0  0  0  0
   -3.5410    0.2677    0.8336 C   0  0  0  0  0  0  0  0  0  0  0  0
   -5.0247    1.0089    1.4254 S   0  0  0  0  0  6  0  0  0  0  0  0
   -5.9654   -0.0328    1.9772 O   0  0  0  0  0  0  0  0  0  0  0  0
   -4.7107    2.0345    2.4858 O   0  0  0  0  0  0  0  0  0  0  0  0
   -5.8414    1.8069    0.2000 O   0  0  0  0  0  0  0  0  0  0  0  0
   -3.5320   -1.0177    0.3464 C   0  0  0  0  0  0  0  0  0  0  0  0
   -2.3390   -1.5895   -0.1208 C   0  0  0  0  0  0  0  0  0  0  0  0
   -1.1380   -0.9122   -0.1188 C   0  0  0  0  0  0  0  0  0  0  0  0
   -0.9680   -3.0019   -1.7260 H   0  0  0  0  0  0  0  0  0  0  0  0
    0.0996   -3.5897   -0.3234 H   0  0  0  0  0  0  0  0  0  0  0  0
    0.7516   -2.9604   -1.9402 H   0  0  0  0  0  0  0  0  0  0  0  0
    2.4167   -2.3468   -1.3510 H   0  0  0  0  0  0  0  0  0  0  0  0
    4.4565   -1.0494   -1.2651 H   0  0  0  0  0  0  0  0  0  0  0  0
    5.3887    1.8457    1.8183 H   0  0  0  0  0  0  0  0  0  0  0  0
    2.3918    2.2383    0.3739 H   0  0  0  0  0  0  0  0  0  0  0  0
   -2.3666    1.9596    1.2258 H   0  0  0  0  0  0  0  0  0  0  0  0
   -5.3536    2.5742   -0.1652 H   0  0  0  0  0  0  0  0  0  0  0  0
   -4.4509   -1.5851    0.3258 H   0  0  0  0  0  0  0  0  0  0  0  0
   -2.3402   -2.6034   -0.4897 H   0  0  0  0  0  0  0  0  0  0  0  0
  1  2  1  0
  2  3  1  0
  3  4  2  0
  4  5  1  0
  5  6  2  0
  6  7  1  0
  7  8  2  0
  7  9  2  0
  7 10  1  0
  6 11  1  0
 11 12  2  0
 12 13  1  0
 13 14  2  0
 13 15  1  0
 15 16  2  0
 16 17  1  0
 17 18  1  0
 18 19  2  0
 18 20  2  0
 18 21  1  0
 17 22  2  0
 22 23  1  0
 23 24  2  0
 24  2  1  0
 12  3  1  0
 24 15  1  0
  1 25  1  0
  1 26  1  0
  1 27  1  0
  4 28  1  0
  5 29  1  0
 10 30  1  0
 11 31  1  0
 16 32  1  0
 21 33  1  0
 22 34  1  0
 23 35  1  0
M  END
