
     RDKit          3D

 26 28  0  0  0  0  0  0  0  0999 V2000
    4.7083    0.4457    0.5288 C   0  0  0  0  0  0  0  0  0  0  0  0
    3.4099    0.9644    0.6648 O   0  0  0  0  0  0  0  0  0  0  0  0
    2.2775    0.2635    0.2760 C   0  0  0  0  0  0  0  0  0  0  0  0
    2.4647   -0.9922   -0.2632 C   0  0  0  0  0  0  0  0  0  0  0  0
    1.3293   -1.6841   -0.6483 C   0  0  0  0  0  0  0  0  0  0  0  0
    0.0558   -1.1660   -0.5108 C   0  0  0  0  0  0  0  0  0  0  0  0
   -0.1212    0.0907    0.0297 C   0  0  0  0  0  0  0  0  0  0  0  0
    1.0116    0.7901    0.4179 C   0  0  0  0  0  0  0  0  0  0  0  0
   -1.5423    0.4182    0.0728 C   0  0  0  0  0  0  0  0  0  0  0  0
   -2.2361    1.5294    0.5125 C   0  0  0  0  0  0  0  0  0  0  0  0
   -3.6175    1.6065    0.4483 C   0  0  0  0  0  0  0  0  0  0  0  0
   -4.3542    0.5582   -0.0653 C   0  0  0  0  0  0  0  0  0  0  0  0
   -3.6576   -0.5493   -0.5031 C   0  0  0  0  0  0  0  0  0  0  0  0
   -2.2815   -0.6343   -0.4428 C   0  0  0  0  0  0  0  0  0  0  0  0
   -1.2933   -1.6449   -0.8173 C   0  0  0  0  0  0  0  0  0  0  0  0
   -1.5908   -2.7480   -1.3238 O   0  0  0  0  0  0  0  0  0  0  0  0
    4.7575   -0.5654    0.9630 H   0  0  0  0  0  0  0  0  0  0  0  0
    5.0129    0.4607   -0.5569 H   0  0  0  0  0  0  0  0  0  0  0  0
    5.3796    1.0947    1.1435 H   0  0  0  0  0  0  0  0  0  0  0  0
    3.4638   -1.4091   -0.3756 H   0  0  0  0  0  0  0  0  0  0  0  0
    1.4293   -2.6793   -1.0791 H   0  0  0  0  0  0  0  0  0  0  0  0
    0.8772    1.7701    0.8395 H   0  0  0  0  0  0  0  0  0  0  0  0
   -1.6487    2.3407    0.9112 H   0  0  0  0  0  0  0  0  0  0  0  0
   -4.1580    2.4774    0.7932 H   0  0  0  0  0  0  0  0  0  0  0  0
   -5.4374    0.6306   -0.1104 H   0  0  0  0  0  0  0  0  0  0  0  0
   -4.2389   -1.3682   -0.9048 H   0  0  0  0  0  0  0  0  0  0  0  0
  1  2  1  0
  2  3  1  0
  3  4  2  0
  4  5  1  0
  5  6  2  0
  6  7  1  0
  7  8  2  0
  7  9  1  0
  9 10  2  0
 10 11  1  0
 11 12  2  0
 12 13  1  0
 13 14  2  0
 14 15  1  0
 15 16  2  0
  8  3  1  0
 14  9  1  0
 15  6  1  0
  1 17  1  0
  1 18  1  0
  1 19  1  0
  4 20  1  0
  5 21  1  0
  8 22  1  0
 10 23  1  0
 11 24  1  0
 12 25  1  0
 13 26  1  0
M  END
