
     RDKit          3D

 49 54  0  0  0  0  0  0  0  0999 V2000
   11.0719    0.8768   -0.3115 Cl  0  0  0  0  0  0  0  0  0  0  0  0
    9.3258    0.6946   -0.3654 C   0  0  0  0  0  0  0  0  0  0  0  0
    8.6965    0.1874   -1.4817 C   0  0  0  0  0  0  0  0  0  0  0  0
    7.3222    0.0446   -1.5228 C   0  0  0  0  0  0  0  0  0  0  0  0
    6.5156    0.4004   -0.4548 C   0  0  0  0  0  0  0  0  0  0  0  0
    5.0710    0.2228   -0.5663 C   0  0  0  0  0  0  0  0  0  0  0  0
    4.2016    0.5218    0.3751 C   0  0  0  0  0  0  0  0  0  0  0  0
    2.7622    0.3503    0.2778 C   0  0  0  0  0  0  0  0  0  0  0  0
    2.1168   -0.1532   -0.8258 C   0  0  0  0  0  0  0  0  0  0  0  0
    0.7220   -0.2870   -0.8397 C   0  0  0  0  0  0  0  0  0  0  0  0
   -0.0333    0.0789    0.2416 C   0  0  0  0  0  0  0  0  0  0  0  0
   -1.4872   -0.0698    0.2041 C   0  0  0  0  0  0  0  0  0  0  0  0
   -2.3327    0.2586    1.2129 N   0  0  0  0  0  0  0  0  0  0  0  0
   -3.6076    0.0047    0.8731 C   0  0  0  0  0  0  0  0  0  0  0  0
   -4.8075    0.1625    1.5389 C   0  0  0  0  0  0  0  0  0  0  0  0
   -4.8644    0.6729    2.8199 C   0  0  0  0  0  0  0  0  0  0  0  0
   -6.0504    0.8391    3.5035 C   0  0  0  0  0  0  0  0  0  0  0  0
   -7.2032    0.4573    2.8180 C   0  0  0  0  0  0  0  0  0  0  0  0
   -7.1309   -0.0384    1.5701 N   0  0  0  0  0  0  0  0  0  0  0  0
   -5.9762   -0.2019    0.9003 C   0  0  0  0  0  0  0  0  0  0  0  0
   -5.9477   -0.7227   -0.3998 C   0  0  0  0  0  0  0  0  0  0  0  0
   -7.0869   -1.0769   -1.0198 N   0  0  0  0  0  0  0  0  0  0  0  0
   -7.0680   -1.5799   -2.2736 C   0  0  0  0  0  0  0  0  0  0  0  0
   -5.8926   -1.7539   -2.9741 C   0  0  0  0  0  0  0  0  0  0  0  0
   -4.7293   -1.3832   -2.3187 C   0  0  0  0  0  0  0  0  0  0  0  0
   -4.7380   -0.8698   -1.0414 C   0  0  0  0  0  0  0  0  0  0  0  0
   -3.5590   -0.5123   -0.4224 C   0  0  0  0  0  0  0  0  0  0  0  0
   -2.2624   -0.5356   -0.7763 N   0  0  0  0  0  0  0  0  0  0  0  0
    0.5949    0.5854    1.3563 C   0  0  0  0  0  0  0  0  0  0  0  0
    1.9845    0.7113    1.3520 C   0  0  0  0  0  0  0  0  0  0  0  0
    7.1666    0.9020    0.6426 C   0  0  0  0  0  0  0  0  0  0  0  0
    8.5351    1.0558    0.7123 C   0  0  0  0  0  0  0  0  0  0  0  0
    9.3388   -0.0873   -2.3108 H   0  0  0  0  0  0  0  0  0  0  0  0
    6.8371   -0.3591   -2.4149 H   0  0  0  0  0  0  0  0  0  0  0  0
    4.6533   -0.1843   -1.4821 H   0  0  0  0  0  0  0  0  0  0  0  0
    4.6141    0.9281    1.2903 H   0  0  0  0  0  0  0  0  0  0  0  0
    2.6846   -0.4509   -1.6948 H   0  0  0  0  0  0  0  0  0  0  0  0
    0.2694   -0.6936   -1.7465 H   0  0  0  0  0  0  0  0  0  0  0  0
   -3.9587    0.9629    3.3336 H   0  0  0  0  0  0  0  0  0  0  0  0
   -6.1080    1.2387    4.5093 H   0  0  0  0  0  0  0  0  0  0  0  0
   -8.1425    0.5849    3.3494 H   0  0  0  0  0  0  0  0  0  0  0  0
   -7.9815   -1.8697   -2.7850 H   0  0  0  0  0  0  0  0  0  0  0  0
   -5.9120   -2.1589   -3.9758 H   0  0  0  0  0  0  0  0  0  0  0  0
   -3.8042   -1.5145   -2.8561 H   0  0  0  0  0  0  0  0  0  0  0  0
   -1.8842   -0.8742   -1.7038 H   0  0  0  0  0  0  0  0  0  0  0  0
   -0.0198    0.8679    2.1985 H   0  0  0  0  0  0  0  0  0  0  0  0
    2.4743    1.1166    2.2470 H   0  0  0  0  0  0  0  0  0  0  0  0
    6.5946    1.1965    1.5049 H   0  0  0  0  0  0  0  0  0  0  0  0
    9.0351    1.4542    1.5881 H   0  0  0  0  0  0  0  0  0  0  0  0
  1  2  1  0
  2  3  2  0
  3  4  1  0
  4  5  2  0
  5  6  1  0
  6  7  2  0
  7  8  1  0
  8  9  2  0
  9 10  1  0
 10 11  2  0
 11 12  1  0
 12 13  2  0
 13 14  1  0
 14 15  2  0
 15 16  1  0
 16 17  2  0
 17 18  1  0
 18 19  2  0
 19 20  1  0
 20 21  2  0
 21 22  1  0
 22 23  2  0
 23 24  1  0
 24 25  2  0
 25 26  1  0
 26 27  2  0
 27 28  1  0
 11 29  1  0
 29 30  2  0
  5 31  1  0
 31 32  2  0
 32  2  1  0
 30  8  1  0
 28 12  1  0
 27 14  1  0
 20 15  1  0
 26 21  1  0
  3 33  1  0
  4 34  1  0
  6 35  1  0
  7 36  1  0
  9 37  1  0
 10 38  1  0
 16 39  1  0
 17 40  1  0
 18 41  1  0
 23 42  1  0
 24 43  1  0
 25 44  1  0
 28 45  1  0
 29 46  1  0
 30 47  1  0
 31 48  1  0
 32 49  1  0
M  END
