
     RDKit          3D

 38 40  0  0  0  0  0  0  0  0999 V2000
   -1.8292   -0.3257    2.2584 C   0  0  0  0  0  0  0  0  0  0  0  0
   -2.6308    0.3213    1.1452 C   0  0  0  0  0  0  0  0  0  0  0  0
   -2.2528   -0.1084   -0.1712 N   0  0  0  0  0  0  0  0  0  0  0  0
   -2.9728    0.3628   -1.3190 C   0  0  0  0  0  0  0  0  0  0  0  0
   -2.7855    1.8118   -1.5553 C   0  0  0  0  0  0  0  0  0  0  0  0
   -1.2067   -1.0344   -0.3460 C   0  0  0  0  0  0  0  0  0  0  0  0
   -1.5357   -2.3752   -0.6659 C   0  0  0  0  0  0  0  0  0  0  0  0
   -0.5772   -3.3393   -0.8104 C   0  0  0  0  0  0  0  0  0  0  0  0
    0.7404   -2.9905   -0.6391 C   0  0  0  0  0  0  0  0  0  0  0  0
    1.1126   -1.6993   -0.3280 C   0  0  0  0  0  0  0  0  0  0  0  0
    0.1114   -0.7378   -0.1877 C   0  0  0  0  0  0  0  0  0  0  0  0
    0.5381    0.6239    0.1278 C   0  0  0  0  0  0  0  0  0  0  0  0
   -0.2794    1.5660    0.2709 O   0  0  0  0  0  0  0  0  0  0  0  0
    1.9722    0.9483    0.2899 C   0  0  0  0  0  0  0  0  0  0  0  0
    2.3184    2.2592    0.5913 C   0  0  0  0  0  0  0  0  0  0  0  0
    3.6652    2.5714    0.7462 C   0  0  0  0  0  0  0  0  0  0  0  0
    4.6439    1.6103    0.6063 C   0  0  0  0  0  0  0  0  0  0  0  0
    4.2903    0.3129    0.3073 C   0  0  0  0  0  0  0  0  0  0  0  0
    2.9556   -0.0078    0.1514 C   0  0  0  0  0  0  0  0  0  0  0  0
    2.5159   -1.3600   -0.1645 C   0  0  0  0  0  0  0  0  0  0  0  0
    3.3963   -2.2478   -0.2957 O   0  0  0  0  0  0  0  0  0  0  0  0
   -1.0248    0.3528    2.5887 H   0  0  0  0  0  0  0  0  0  0  0  0
   -1.4616   -1.3380    1.9515 H   0  0  0  0  0  0  0  0  0  0  0  0
   -2.4782   -0.4786    3.1677 H   0  0  0  0  0  0  0  0  0  0  0  0
   -3.7024   -0.0470    1.3533 H   0  0  0  0  0  0  0  0  0  0  0  0
   -2.7201    1.4008    1.2992 H   0  0  0  0  0  0  0  0  0  0  0  0
   -2.8087   -0.2647   -2.2213 H   0  0  0  0  0  0  0  0  0  0  0  0
   -4.0725    0.2090   -1.0795 H   0  0  0  0  0  0  0  0  0  0  0  0
   -3.6574    2.2466   -2.1278 H   0  0  0  0  0  0  0  0  0  0  0  0
   -1.9023    2.0608   -2.1816 H   0  0  0  0  0  0  0  0  0  0  0  0
   -2.7253    2.4203   -0.6380 H   0  0  0  0  0  0  0  0  0  0  0  0
   -2.5929   -2.5686   -0.7842 H   0  0  0  0  0  0  0  0  0  0  0  0
   -0.8466   -4.3470   -1.0524 H   0  0  0  0  0  0  0  0  0  0  0  0
    1.5553   -3.7096   -0.7389 H   0  0  0  0  0  0  0  0  0  0  0  0
    1.5514    3.0113    0.7005 H   0  0  0  0  0  0  0  0  0  0  0  0
    3.9805    3.5678    0.9787 H   0  0  0  0  0  0  0  0  0  0  0  0
    5.6949    1.8120    0.7182 H   0  0  0  0  0  0  0  0  0  0  0  0
    5.0206   -0.4897    0.1848 H   0  0  0  0  0  0  0  0  0  0  0  0
  1  2  1  0
  2  3  1  0
  3  4  1  0
  4  5  1  0
  3  6  1  0
  6  7  2  0
  7  8  1  0
  8  9  2  0
  9 10  1  0
 10 11  2  0
 11 12  1  0
 12 13  2  0
 12 14  1  0
 14 15  2  0
 15 16  1  0
 16 17  2  0
 17 18  1  0
 18 19  2  0
 19 20  1  0
 20 21  2  0
 11  6  1  0
 19 14  1  0
 20 10  1  0
  1 22  1  0
  1 23  1  0
  1 24  1  0
  2 25  1  0
  2 26  1  0
  4 27  1  0
  4 28  1  0
  5 29  1  0
  5 30  1  0
  5 31  1  0
  7 32  1  0
  8 33  1  0
  9 34  1  0
 15 35  1  0
 16 36  1  0
 17 37  1  0
 18 38  1  0
M  END
