
     RDKit          3D

 44 47  0  0  0  0  0  0  0  0999 V2000
    5.3510    0.7142   -0.9498 C   0  0  0  0  0  0  0  0  0  0  0  0
    3.9399    0.7176   -0.8395 O   0  0  0  0  0  0  0  0  0  0  0  0
    3.2002    1.8449   -0.5175 C   0  0  0  0  0  0  0  0  0  0  0  0
    3.8329    2.9147   -0.3156 O   0  0  0  0  0  0  0  0  0  0  0  0
    1.7563    1.7457   -0.4297 C   0  0  0  0  0  0  0  0  0  0  0  0
    1.0907    2.8129   -0.1344 N   0  0  0  0  0  0  0  0  0  0  0  0
   -0.3070    2.8111   -0.0555 N   0  0  0  0  0  0  0  0  0  0  0  0
   -1.0959    1.6160   -0.3229 C   0  0  0  0  0  0  0  0  0  0  0  0
   -2.4961    1.6287   -0.0950 C   0  0  0  0  0  0  0  0  0  0  0  0
   -2.9466    2.8312    0.1978 O   0  0  0  0  0  0  0  0  0  0  0  0
   -3.5342    0.7736   -0.0653 O   0  0  0  0  0  0  0  0  0  0  0  0
   -4.8849    1.0535    0.2213 C   0  0  0  0  0  0  0  0  0  0  0  0
   -0.3941    0.5633   -0.6406 C   0  0  0  0  0  0  0  0  0  0  0  0
   -1.2836   -0.5494   -0.9475 C   0  0  0  0  0  0  0  0  0  0  0  0
   -2.2392   -0.0835   -1.8326 C   0  0  0  0  0  0  0  0  0  0  0  0
   -3.1467   -1.0196   -2.2894 C   0  0  0  0  0  0  0  0  0  0  0  0
   -3.1068   -2.3431   -1.8904 C   0  0  0  0  0  0  0  0  0  0  0  0
   -2.1318   -2.7762   -1.0012 C   0  0  0  0  0  0  0  0  0  0  0  0
   -1.2309   -1.8888   -0.5366 C   0  0  0  0  0  0  0  0  0  0  0  0
   -0.1872   -2.4387    0.3646 C   0  0  0  0  0  0  0  0  0  0  0  0
   -0.1892   -3.6607    0.5038 O   0  0  0  0  0  0  0  0  0  0  0  0
    0.7984   -1.6061    1.0613 C   0  0  0  0  0  0  0  0  0  0  0  0
    1.1310   -2.2487    2.2624 C   0  0  0  0  0  0  0  0  0  0  0  0
    1.9945   -1.6300    3.1345 C   0  0  0  0  0  0  0  0  0  0  0  0
    2.5291   -0.4065    2.8501 C   0  0  0  0  0  0  0  0  0  0  0  0
    2.1834    0.2098    1.6501 C   0  0  0  0  0  0  0  0  0  0  0  0
    1.3253   -0.3772    0.7494 C   0  0  0  0  0  0  0  0  0  0  0  0
    1.1115    0.4457   -0.5237 C   0  0  0  0  0  0  0  0  0  0  0  0
    5.6187   -0.1736   -1.5580 H   0  0  0  0  0  0  0  0  0  0  0  0
    5.7578    0.6330    0.0757 H   0  0  0  0  0  0  0  0  0  0  0  0
    5.7524    1.5948   -1.4647 H   0  0  0  0  0  0  0  0  0  0  0  0
   -0.7739    3.6956    0.2015 H   0  0  0  0  0  0  0  0  0  0  0  0
   -5.5000    1.1836   -0.6808 H   0  0  0  0  0  0  0  0  0  0  0  0
   -5.3478    0.2705    0.8614 H   0  0  0  0  0  0  0  0  0  0  0  0
   -4.8852    2.0425    0.7629 H   0  0  0  0  0  0  0  0  0  0  0  0
   -2.2118    0.9066   -2.1664 H   0  0  0  0  0  0  0  0  0  0  0  0
   -3.9123   -0.7310   -2.9742 H   0  0  0  0  0  0  0  0  0  0  0  0
   -3.8076   -3.0862   -2.2368 H   0  0  0  0  0  0  0  0  0  0  0  0
   -2.0444   -3.7981   -0.6494 H   0  0  0  0  0  0  0  0  0  0  0  0
    0.7053   -3.2091    2.4697 H   0  0  0  0  0  0  0  0  0  0  0  0
    2.2533   -2.1227    4.0610 H   0  0  0  0  0  0  0  0  0  0  0  0
    3.2215    0.0972    3.5445 H   0  0  0  0  0  0  0  0  0  0  0  0
    2.5977    1.1837    1.4797 H   0  0  0  0  0  0  0  0  0  0  0  0
    1.5062   -0.1410   -1.3343 H   0  0  0  0  0  0  0  0  0  0  0  0
  1  2  1  0
  2  3  1  0
  3  4  2  0
  3  5  1  0
  5  6  2  0
  6  7  1  0
  7  8  1  0
  8  9  1  0
  9 10  2  0
  9 11  1  0
 11 12  1  0
  8 13  2  0
 13 14  1  0
 14 15  2  0
 15 16  1  0
 16 17  2  0
 17 18  1  0
 18 19  2  0
 19 20  1  0
 20 21  2  0
 20 22  1  0
 22 23  2  0
 23 24  1  0
 24 25  2  0
 25 26  1  0
 26 27  2  0
 27 28  1  0
 28  5  1  0
 28 13  1  0
 19 14  1  0
 27 22  1  0
  1 29  1  0
  1 30  1  0
  1 31  1  0
  7 32  1  0
 12 33  1  0
 12 34  1  0
 12 35  1  0
 15 36  1  0
 16 37  1  0
 17 38  1  0
 18 39  1  0
 23 40  1  0
 24 41  1  0
 25 42  1  0
 26 43  1  0
 28 44  1  0
M  END
