
     RDKit          3D

 34 37  0  0  0  0  0  0  0  0999 V2000
   -0.9042   -2.5412   -0.8491 F   0  0  0  0  0  0  0  0  0  0  0  0
   -0.5133   -1.1538   -0.9607 B   0  0  0  0  0  4  0  0  0  0  0  0
   -0.8898   -0.8208   -2.3699 F   0  0  0  0  0  0  0  0  0  0  0  0
    0.9217   -0.9518   -0.9271 O   0  0  0  0  0  0  0  0  0  0  0  0
    1.5657   -0.0909   -0.0815 C   0  0  0  0  0  0  0  0  0  0  0  0
    3.0427   -0.0465   -0.0628 C   0  0  0  0  0  0  0  0  0  0  0  0
    3.7585    0.7694    0.7370 C   0  0  0  0  0  0  0  0  0  0  0  0
    5.1382    0.7663    0.7101 C   0  0  0  0  0  0  0  0  0  0  0  0
    5.8143   -0.0733   -0.1375 C   0  0  0  0  0  0  0  0  0  0  0  0
    5.1070   -0.9165   -0.9646 C   0  0  0  0  0  0  0  0  0  0  0  0
    3.7278   -0.9074   -0.9317 C   0  0  0  0  0  0  0  0  0  0  0  0
    0.8506    0.6930    0.7110 C   0  0  0  0  0  0  0  0  0  0  0  0
   -0.6147    0.6462    0.6937 C   0  0  0  0  0  0  0  0  0  0  0  0
   -1.3355    1.5094    1.5044 C   0  0  0  0  0  0  0  0  0  0  0  0
   -2.7025    1.5448    1.5106 C   0  0  0  0  0  0  0  0  0  0  0  0
   -3.3405    0.6615    0.6530 C   0  0  0  0  0  0  0  0  0  0  0  0
   -4.7307    0.6410    0.6015 C   0  0  0  0  0  0  0  0  0  0  0  0
   -5.3852   -0.2240   -0.2420 C   0  0  0  0  0  0  0  0  0  0  0  0
   -4.6628   -1.0790   -1.0444 C   0  0  0  0  0  0  0  0  0  0  0  0
   -3.2784   -1.0795   -1.0130 C   0  0  0  0  0  0  0  0  0  0  0  0
   -2.6414   -0.2093   -0.1645 C   0  0  0  0  0  0  0  0  0  0  0  0
   -1.2726   -0.1903   -0.1174 N   0  0  0  0  0  4  0  0  0  0  0  0
    3.2856    1.4450    1.4177 H   0  0  0  0  0  0  0  0  0  0  0  0
    5.7012    1.4343    1.3652 H   0  0  0  0  0  0  0  0  0  0  0  0
    6.8950   -0.0529   -0.1358 H   0  0  0  0  0  0  0  0  0  0  0  0
    5.6589   -1.5615   -1.6162 H   0  0  0  0  0  0  0  0  0  0  0  0
    3.1772   -1.5803   -1.5920 H   0  0  0  0  0  0  0  0  0  0  0  0
    1.2944    1.3785    1.3829 H   0  0  0  0  0  0  0  0  0  0  0  0
   -0.7743    2.1810    2.1579 H   0  0  0  0  0  0  0  0  0  0  0  0
   -3.2911    2.2046    2.1298 H   0  0  0  0  0  0  0  0  0  0  0  0
   -5.2717    1.3367    1.2553 H   0  0  0  0  0  0  0  0  0  0  0  0
   -6.4862   -0.2297   -0.2727 H   0  0  0  0  0  0  0  0  0  0  0  0
   -5.1450   -1.7714   -1.7188 H   0  0  0  0  0  0  0  0  0  0  0  0
   -2.6988   -1.7317   -1.6286 H   0  0  0  0  0  0  0  0  0  0  0  0
  1  2  1  0
  2  3  1  0
  2  4  1  0
  4  5  1  0
  5  6  1  0
  6  7  2  0
  7  8  1  0
  8  9  2  0
  9 10  1  0
 10 11  2  0
  5 12  2  0
 12 13  1  0
 13 14  2  0
 14 15  1  0
 15 16  2  0
 16 17  1  0
 17 18  2  0
 18 19  1  0
 19 20  2  0
 20 21  1  0
 21 22  2  0
 22  2  1  0
 11  6  1  0
 22 13  1  0
 21 16  1  0
  7 23  1  0
  8 24  1  0
  9 25  1  0
 10 26  1  0
 11 27  1  0
 12 28  1  0
 14 29  1  0
 15 30  1  0
 17 31  1  0
 18 32  1  0
 19 33  1  0
 20 34  1  0
M  CHG  2   2  -1  22   1
M  END
