
     RDKit          3D

 40 43  0  0  0  0  0  0  0  0999 V2000
    5.8906    2.5896    0.2433 O   0  0  0  0  0  0  0  0  0  0  0  0
    5.1866    1.4213   -0.0787 C   0  0  0  0  0  0  0  0  0  0  0  0
    5.9311    0.3289   -0.5363 C   0  0  0  0  0  0  0  0  0  0  0  0
    5.2612   -0.8243   -0.8571 C   0  0  0  0  0  0  0  0  0  0  0  0
    3.8960   -0.8934   -0.7287 C   0  0  0  0  0  0  0  0  0  0  0  0
    3.1425    0.1684   -0.2806 C   0  0  0  0  0  0  0  0  0  0  0  0
    1.6945    0.0606   -0.1569 C   0  0  0  0  0  0  0  0  0  0  0  0
    0.9938   -1.0437   -0.4622 N   0  0  0  0  0  0  0  0  0  0  0  0
   -0.3110   -0.7758   -0.2248 C   0  0  0  0  0  0  0  0  0  0  0  0
   -1.3841   -1.7103   -0.4292 C   0  0  0  0  0  0  0  0  0  0  0  0
   -2.3680   -1.4417   -1.3452 C   0  0  0  0  0  0  0  0  0  0  0  0
   -3.4116   -2.3503   -1.5447 C   0  0  0  0  0  0  0  0  0  0  0  0
   -3.4529   -3.5151   -0.8225 C   0  0  0  0  0  0  0  0  0  0  0  0
   -2.4737   -3.8007    0.1009 C   0  0  0  0  0  0  0  0  0  0  0  0
   -1.4521   -2.8830    0.2779 C   0  0  0  0  0  0  0  0  0  0  0  0
   -0.4314    0.5113    0.2349 C   0  0  0  0  0  0  0  0  0  0  0  0
   -1.6428    1.2014    0.6074 C   0  0  0  0  0  0  0  0  0  0  0  0
   -2.0438    2.3487   -0.0369 C   0  0  0  0  0  0  0  0  0  0  0  0
   -3.1896    3.0322    0.2894 C   0  0  0  0  0  0  0  0  0  0  0  0
   -4.0023    2.5817    1.3020 C   0  0  0  0  0  0  0  0  0  0  0  0
   -3.6067    1.4267    1.9571 C   0  0  0  0  0  0  0  0  0  0  0  0
   -2.4545    0.7451    1.6243 C   0  0  0  0  0  0  0  0  0  0  0  0
    0.8204    0.9996    0.2656 N   0  0  0  0  0  0  0  0  0  0  0  0
    3.8190    1.3362    0.0445 C   0  0  0  0  0  0  0  0  0  0  0  0
    5.3471    3.3758    0.5737 H   0  0  0  0  0  0  0  0  0  0  0  0
    7.0048    0.4390   -0.6182 H   0  0  0  0  0  0  0  0  0  0  0  0
    5.8145   -1.6694   -1.2085 H   0  0  0  0  0  0  0  0  0  0  0  0
    3.3623   -1.8068   -0.9822 H   0  0  0  0  0  0  0  0  0  0  0  0
   -2.3996   -0.5367   -1.9540 H   0  0  0  0  0  0  0  0  0  0  0  0
   -4.1690   -2.1290   -2.2592 H   0  0  0  0  0  0  0  0  0  0  0  0
   -4.2795   -4.1972   -1.0047 H   0  0  0  0  0  0  0  0  0  0  0  0
   -2.5478   -4.7314    0.6468 H   0  0  0  0  0  0  0  0  0  0  0  0
   -0.6943   -3.1480    1.0212 H   0  0  0  0  0  0  0  0  0  0  0  0
   -1.4270    2.7241   -0.8338 H   0  0  0  0  0  0  0  0  0  0  0  0
   -3.4269    3.9249   -0.2709 H   0  0  0  0  0  0  0  0  0  0  0  0
   -4.9007    3.1280    1.5495 H   0  0  0  0  0  0  0  0  0  0  0  0
   -4.2503    1.0772    2.7530 H   0  0  0  0  0  0  0  0  0  0  0  0
   -2.2004   -0.1428    2.1665 H   0  0  0  0  0  0  0  0  0  0  0  0
    1.0761    1.9834    0.5780 H   0  0  0  0  0  0  0  0  0  0  0  0
    3.2796    2.1951    0.3990 H   0  0  0  0  0  0  0  0  0  0  0  0
  1  2  1  0
  2  3  2  0
  3  4  1  0
  4  5  2  0
  5  6  1  0
  6  7  1  0
  7  8  2  0
  8  9  1  0
  9 10  1  0
 10 11  2  0
 11 12  1  0
 12 13  2  0
 13 14  1  0
 14 15  2  0
  9 16  2  0
 16 17  1  0
 17 18  2  0
 18 19  1  0
 19 20  2  0
 20 21  1  0
 21 22  2  0
 16 23  1  0
  6 24  2  0
 24  2  1  0
 23  7  1  0
 15 10  1  0
 22 17  1  0
  1 25  1  0
  3 26  1  0
  4 27  1  0
  5 28  1  0
 11 29  1  0
 12 30  1  0
 13 31  1  0
 14 32  1  0
 15 33  1  0
 18 34  1  0
 19 35  1  0
 20 36  1  0
 21 37  1  0
 22 38  1  0
 23 39  1  0
 24 40  1  0
M  END
