
     RDKit          3D

 40 43  0  0  0  0  0  0  0  0999 V2000
    6.6921   -2.6980   -1.2490 N   0  0  0  0  0  0  0  0  0  0  0  0
    6.0750   -1.8823   -0.6758 C   0  0  0  0  0  0  0  0  0  0  0  0
    5.2933   -0.8845    0.0232 C   0  0  0  0  0  0  0  0  0  0  0  0
    5.9072   -0.0225    0.8815 C   0  0  0  0  0  0  0  0  0  0  0  0
    5.1891    0.9359    1.5909 C   0  0  0  0  0  0  0  0  0  0  0  0
    3.8243    0.9815    1.3927 C   0  0  0  0  0  0  0  0  0  0  0  0
    3.1718    0.1325    0.5389 C   0  0  0  0  0  0  0  0  0  0  0  0
    1.7187    0.1441    0.3252 C   0  0  0  0  0  0  0  0  0  0  0  0
    0.8124    0.9045    0.9571 N   0  0  0  0  0  0  0  0  0  0  0  0
   -0.4200    0.6351    0.5236 C   0  0  0  0  0  0  0  0  0  0  0  0
   -1.6905    1.2255    0.9519 C   0  0  0  0  0  0  0  0  0  0  0  0
   -2.1538    1.1922    2.2474 C   0  0  0  0  0  0  0  0  0  0  0  0
   -3.3678    1.7600    2.6019 C   0  0  0  0  0  0  0  0  0  0  0  0
   -4.1579    2.3823    1.6586 C   0  0  0  0  0  0  0  0  0  0  0  0
   -3.7066    2.4218    0.3634 C   0  0  0  0  0  0  0  0  0  0  0  0
   -2.4943    1.8515    0.0250 C   0  0  0  0  0  0  0  0  0  0  0  0
   -0.2864   -0.3564   -0.4434 C   0  0  0  0  0  0  0  0  0  0  0  0
   -1.4008   -0.9419   -1.1736 C   0  0  0  0  0  0  0  0  0  0  0  0
   -2.2303   -1.8357   -0.5432 C   0  0  0  0  0  0  0  0  0  0  0  0
   -3.3107   -2.4104   -1.2006 C   0  0  0  0  0  0  0  0  0  0  0  0
   -3.5511   -2.0804   -2.4951 C   0  0  0  0  0  0  0  0  0  0  0  0
   -2.7451   -1.1875   -3.1678 C   0  0  0  0  0  0  0  0  0  0  0  0
   -1.6688   -0.6261   -2.4860 C   0  0  0  0  0  0  0  0  0  0  0  0
    1.0195   -0.6216   -0.5299 N   0  0  0  0  0  0  0  0  0  0  0  0
    3.9150   -0.7992   -0.1438 C   0  0  0  0  0  0  0  0  0  0  0  0
    6.9827   -0.0669    1.0283 H   0  0  0  0  0  0  0  0  0  0  0  0
    5.7403    1.5780    2.2440 H   0  0  0  0  0  0  0  0  0  0  0  0
    3.2599    1.7179    1.9341 H   0  0  0  0  0  0  0  0  0  0  0  0
   -1.5610    0.7142    3.0120 H   0  0  0  0  0  0  0  0  0  0  0  0
   -3.7265    1.7280    3.6422 H   0  0  0  0  0  0  0  0  0  0  0  0
   -5.1210    2.8305    1.9480 H   0  0  0  0  0  0  0  0  0  0  0  0
   -4.3263    2.9075   -0.3723 H   0  0  0  0  0  0  0  0  0  0  0  0
   -2.1316    1.8799   -0.9983 H   0  0  0  0  0  0  0  0  0  0  0  0
   -2.0872   -2.1348    0.4827 H   0  0  0  0  0  0  0  0  0  0  0  0
   -3.9662   -3.1188   -0.6926 H   0  0  0  0  0  0  0  0  0  0  0  0
   -4.4065   -2.5335   -3.0211 H   0  0  0  0  0  0  0  0  0  0  0  0
   -2.9793   -0.9632   -4.1822 H   0  0  0  0  0  0  0  0  0  0  0  0
   -1.0237    0.0731   -2.9858 H   0  0  0  0  0  0  0  0  0  0  0  0
    1.4382   -1.3378   -1.1845 H   0  0  0  0  0  0  0  0  0  0  0  0
    3.4736   -1.4945   -0.8275 H   0  0  0  0  0  0  0  0  0  0  0  0
  1  2  3  0
  2  3  1  0
  3  4  2  0
  4  5  1  0
  5  6  2  0
  6  7  1  0
  7  8  1  0
  8  9  2  0
  9 10  1  0
 10 11  1  0
 11 12  2  0
 12 13  1  0
 13 14  2  0
 14 15  1  0
 15 16  2  0
 10 17  2  0
 17 18  1  0
 18 19  2  0
 19 20  1  0
 20 21  2  0
 21 22  1  0
 22 23  2  0
 17 24  1  0
  7 25  2  0
 25  3  1  0
 24  8  1  0
 16 11  1  0
 23 18  1  0
  4 26  1  0
  5 27  1  0
  6 28  1  0
 12 29  1  0
 13 30  1  0
 14 31  1  0
 15 32  1  0
 16 33  1  0
 19 34  1  0
 20 35  1  0
 21 36  1  0
 22 37  1  0
 23 38  1  0
 24 39  1  0
 25 40  1  0
M  END
