
     RDKit          3D

 32 34  0  0  0  0  0  0  0  0999 V2000
   -5.6419    0.3166    0.1943 C   0  0  0  0  0  0  0  0  0  0  0  0
   -5.0235   -0.8477    0.6490 C   0  0  0  0  0  0  0  0  0  0  0  0
   -3.6480   -0.9643    0.6538 C   0  0  0  0  0  0  0  0  0  0  0  0
   -2.8563    0.0633    0.2114 C   0  0  0  0  0  0  0  0  0  0  0  0
   -1.4044    0.0109    0.1917 C   0  0  0  0  0  0  0  0  0  0  0  0
   -0.6964   -0.7003    1.1324 C   0  0  0  0  0  0  0  0  0  0  0  0
    0.6797   -0.7535    1.1173 C   0  0  0  0  0  0  0  0  0  0  0  0
    1.4121   -0.0887    0.1482 C   0  0  0  0  0  0  0  0  0  0  0  0
    2.8830   -0.1475    0.1343 C   0  0  0  0  0  0  0  0  0  0  0  0
    3.5692    0.9473   -0.3494 C   0  0  0  0  0  0  0  0  0  0  0  0
    4.9465    0.9144   -0.3733 C   0  0  0  0  0  0  0  0  0  0  0  0
    5.6418   -0.2004    0.0807 C   0  0  0  0  0  0  0  0  0  0  0  0
    4.9281   -1.2943    0.5649 C   0  0  0  0  0  0  0  0  0  0  0  0
    3.5505   -1.2753    0.5948 C   0  0  0  0  0  0  0  0  0  0  0  0
    0.7170    0.6228   -0.7940 C   0  0  0  0  0  0  0  0  0  0  0  0
   -0.6591    0.6667   -0.7660 C   0  0  0  0  0  0  0  0  0  0  0  0
   -3.4894    1.2178   -0.2390 C   0  0  0  0  0  0  0  0  0  0  0  0
   -4.8502    1.3525   -0.2518 C   0  0  0  0  0  0  0  0  0  0  0  0
   -6.7063    0.4494    0.1738 H   0  0  0  0  0  0  0  0  0  0  0  0
   -5.6431   -1.6554    0.9966 H   0  0  0  0  0  0  0  0  0  0  0  0
   -3.1720   -1.8755    1.0087 H   0  0  0  0  0  0  0  0  0  0  0  0
   -1.2642   -1.2349    1.9107 H   0  0  0  0  0  0  0  0  0  0  0  0
    1.2284   -1.3218    1.8712 H   0  0  0  0  0  0  0  0  0  0  0  0
    3.0154    1.8254   -0.7067 H   0  0  0  0  0  0  0  0  0  0  0  0
    5.5084    1.7788   -0.7563 H   0  0  0  0  0  0  0  0  0  0  0  0
    6.7220   -0.2129    0.0561 H   0  0  0  0  0  0  0  0  0  0  0  0
    5.4276   -2.1901    0.9310 H   0  0  0  0  0  0  0  0  0  0  0  0
    2.9486   -2.0956    0.9606 H   0  0  0  0  0  0  0  0  0  0  0  0
    1.2528    1.1510   -1.5615 H   0  0  0  0  0  0  0  0  0  0  0  0
   -1.2141    1.2263   -1.5068 H   0  0  0  0  0  0  0  0  0  0  0  0
   -2.8897    2.0449   -0.5940 H   0  0  0  0  0  0  0  0  0  0  0  0
   -5.2725    2.2703   -0.6120 H   0  0  0  0  0  0  0  0  0  0  0  0
  1  2  2  0
  2  3  1  0
  3  4  2  0
  4  5  1  0
  5  6  2  0
  6  7  1  0
  7  8  2  0
  8  9  1  0
  9 10  2  0
 10 11  1  0
 11 12  2  0
 12 13  1  0
 13 14  2  0
  8 15  1  0
 15 16  2  0
  4 17  1  0
 17 18  2  0
 18  1  1  0
 16  5  1  0
 14  9  1  0
  1 19  1  0
  2 20  1  0
  3 21  1  0
  6 22  1  0
  7 23  1  0
 10 24  1  0
 11 25  1  0
 12 26  1  0
 13 27  1  0
 14 28  1  0
 15 29  1  0
 16 30  1  0
 17 31  1  0
 18 32  1  0
M  END
