
     RDKit          3D

 31 35  0  0  0  0  0  0  0  0999 V2000
   -1.8013   -2.6613   -0.5023 F   0  0  0  0  0  0  0  0  0  0  0  0
   -1.8357   -1.5978    0.4825 B   0  0  0  0  0  4  0  0  0  0  0  0
   -1.8599   -2.0969    1.8431 F   0  0  0  0  0  0  0  0  0  0  0  0
   -3.0670   -0.7231    0.2742 N   0  0  0  0  0  0  0  0  0  0  0  0
   -4.4268   -0.7466    0.2745 C   0  0  0  0  0  0  0  0  0  0  0  0
   -4.8924    0.5107   -0.0200 C   0  0  0  0  0  0  0  0  0  0  0  0
   -3.7576    1.3025   -0.2000 C   0  0  0  0  0  0  0  0  0  0  0  0
   -2.6400    0.5150   -0.0124 C   0  0  0  0  0  0  0  0  0  0  0  0
   -1.1695    0.5486   -0.0146 C   0  0  0  0  0  0  0  0  0  0  0  0
   -0.6767   -0.6093    0.2568 N   0  0  0  0  0  4  0  0  0  0  0  0
    0.7325   -0.8423    0.3164 C   0  0  0  0  0  0  0  0  0  0  0  0
    1.1890   -2.1206    0.6157 C   0  0  0  0  0  0  0  0  0  0  0  0
    2.5499   -2.3459    0.6733 C   0  0  0  0  0  0  0  0  0  0  0  0
    3.4780   -1.3574    0.4467 C   0  0  0  0  0  0  0  0  0  0  0  0
    3.0316   -0.1025    0.1529 C   0  0  0  0  0  0  0  0  0  0  0  0
    3.8860    0.9641   -0.0922 C   0  0  0  0  0  0  0  0  0  0  0  0
    3.3976    2.2183   -0.3860 C   0  0  0  0  0  0  0  0  0  0  0  0
    2.0445    2.4563   -0.4466 C   0  0  0  0  0  0  0  0  0  0  0  0
    1.1759    1.4163   -0.2078 C   0  0  0  0  0  0  0  0  0  0  0  0
    1.6701    0.1674    0.0849 C   0  0  0  0  0  0  0  0  0  0  0  0
   -0.2428    1.5984   -0.2555 N   0  0  0  0  0  0  0  0  0  0  0  0
   -5.0097   -1.6361    0.4794 H   0  0  0  0  0  0  0  0  0  0  0  0
   -5.9099    0.8066   -0.0927 H   0  0  0  0  0  0  0  0  0  0  0  0
   -3.8378    2.3528   -0.4448 H   0  0  0  0  0  0  0  0  0  0  0  0
    0.4644   -2.9073    0.7961 H   0  0  0  0  0  0  0  0  0  0  0  0
    2.8714   -3.3480    0.9078 H   0  0  0  0  0  0  0  0  0  0  0  0
    4.5534   -1.5418    0.4937 H   0  0  0  0  0  0  0  0  0  0  0  0
    4.9605    0.7805   -0.0453 H   0  0  0  0  0  0  0  0  0  0  0  0
    4.1038    3.0329   -0.5730 H   0  0  0  0  0  0  0  0  0  0  0  0
    1.6243    3.4317   -0.6753 H   0  0  0  0  0  0  0  0  0  0  0  0
   -0.6057    2.5349   -0.4749 H   0  0  0  0  0  0  0  0  0  0  0  0
  1  2  1  0
  2  3  1  0
  2  4  1  0
  4  5  1  0
  5  6  2  0
  6  7  1  0
  7  8  2  0
  8  9  1  0
  9 10  2  0
 10 11  1  0
 11 12  2  0
 12 13  1  0
 13 14  2  0
 14 15  1  0
 15 16  2  0
 16 17  1  0
 17 18  2  0
 18 19  1  0
 19 20  2  0
 19 21  1  0
 10  2  1  0
 20 11  1  0
  8  4  1  0
 21  9  1  0
 20 15  1  0
  5 22  1  0
  6 23  1  0
  7 24  1  0
 12 25  1  0
 13 26  1  0
 14 27  1  0
 16 28  1  0
 17 29  1  0
 18 30  1  0
 21 31  1  0
M  CHG  2   2  -1  10   1
M  END
