
     RDKit          3D

 28 29  0  0  0  0  0  0  0  0999 V2000
   -5.6243    0.2065    0.1402 N   0  0  0  0  0  0  0  0  0  0  0  0
   -4.2196    0.0598    0.0589 C   0  0  0  0  0  0  0  0  0  0  0  0
   -3.6396   -0.9504   -0.6946 C   0  0  0  0  0  0  0  0  0  0  0  0
   -2.2740   -1.0980   -0.7775 C   0  0  0  0  0  0  0  0  0  0  0  0
   -1.4088   -0.2235   -0.0961 C   0  0  0  0  0  0  0  0  0  0  0  0
    0.0321   -0.4177   -0.2127 C   0  0  0  0  0  0  0  0  0  0  0  0
    0.8973    0.3375    0.3784 C   0  0  0  0  0  0  0  0  0  0  0  0
    2.3623    0.1839    0.2931 C   0  0  0  0  0  0  0  0  0  0  0  0
    2.9693   -0.8086   -0.4465 C   0  0  0  0  0  0  0  0  0  0  0  0
    4.3502   -0.9521   -0.5260 C   0  0  0  0  0  0  0  0  0  0  0  0
    5.1716   -0.0795    0.1531 C   0  0  0  0  0  0  0  0  0  0  0  0
    4.5930    0.9244    0.9020 C   0  0  0  0  0  0  0  0  0  0  0  0
    3.2193    1.0396    0.9601 C   0  0  0  0  0  0  0  0  0  0  0  0
   -1.9667    0.7749    0.6489 C   0  0  0  0  0  0  0  0  0  0  0  0
   -3.3455    0.8972    0.7124 C   0  0  0  0  0  0  0  0  0  0  0  0
   -6.1195   -0.2065    0.9510 H   0  0  0  0  0  0  0  0  0  0  0  0
   -6.1690    0.7086   -0.5777 H   0  0  0  0  0  0  0  0  0  0  0  0
   -4.3213   -1.6143   -1.2125 H   0  0  0  0  0  0  0  0  0  0  0  0
   -1.8612   -1.8907   -1.3697 H   0  0  0  0  0  0  0  0  0  0  0  0
    0.4283   -1.2396   -0.8274 H   0  0  0  0  0  0  0  0  0  0  0  0
    0.5751    1.1633    0.9976 H   0  0  0  0  0  0  0  0  0  0  0  0
    2.3892   -1.5092   -0.9901 H   0  0  0  0  0  0  0  0  0  0  0  0
    4.7910   -1.7468   -1.1192 H   0  0  0  0  0  0  0  0  0  0  0  0
    6.2584   -0.1934    0.0899 H   0  0  0  0  0  0  0  0  0  0  0  0
    5.2248    1.6171    1.4406 H   0  0  0  0  0  0  0  0  0  0  0  0
    2.7687    1.8264    1.5471 H   0  0  0  0  0  0  0  0  0  0  0  0
   -1.3475    1.4732    1.1916 H   0  0  0  0  0  0  0  0  0  0  0  0
   -3.7338    1.7177    1.3261 H   0  0  0  0  0  0  0  0  0  0  0  0
  1  2  1  0
  2  3  2  0
  3  4  1  0
  4  5  2  0
  5  6  1  0
  6  7  2  0
  7  8  1  0
  8  9  2  0
  9 10  1  0
 10 11  2  0
 11 12  1  0
 12 13  2  0
  5 14  1  0
 14 15  2  0
 15  2  1  0
 13  8  1  0
  1 16  1  0
  1 17  1  0
  3 18  1  0
  4 19  1  0
  6 20  1  0
  7 21  1  0
  9 22  1  0
 10 23  1  0
 11 24  1  0
 12 25  1  0
 13 26  1  0
 14 27  1  0
 15 28  1  0
M  END
