
     RDKit          3D

 79 85  0  0  0  0  0  0  0  0999 V2000
   -8.5516   -5.1258   -0.7240 C   0  0  0  0  0  0  0  0  0  0  0  0
   -8.4324   -4.2697    0.3907 O   0  0  0  0  0  0  0  0  0  0  0  0
   -7.5073   -3.2404    0.3731 C   0  0  0  0  0  0  0  0  0  0  0  0
   -7.3616   -2.3788    1.4502 C   0  0  0  0  0  0  0  0  0  0  0  0
   -6.4264   -1.3416    1.4267 C   0  0  0  0  0  0  0  0  0  0  0  0
   -5.6458   -1.1781    0.3229 C   0  0  0  0  0  0  0  0  0  0  0  0
   -4.6456   -0.1332    0.1759 C   0  0  0  0  0  0  0  0  0  0  0  0
   -3.3049   -0.2336    0.1811 N   0  0  0  0  0  0  0  0  0  0  0  0
   -2.7393    0.9721    0.0119 C   0  0  0  0  0  0  0  0  0  0  0  0
   -1.2777    1.2014   -0.0345 C   0  0  0  0  0  0  0  0  0  0  0  0
   -0.5921    2.3560   -0.2043 C   0  0  0  0  0  0  0  0  0  0  0  0
    0.7486    2.2926   -0.2132 C   0  0  0  0  0  0  0  0  0  0  0  0
    1.3113    1.0533   -0.0481 C   0  0  0  0  0  0  0  0  0  0  0  0
    2.7519    0.7118   -0.0260 C   0  0  0  0  0  0  0  0  0  0  0  0
    3.7907    1.5408   -0.1771 N   0  0  0  0  0  0  0  0  0  0  0  0
    4.9614    0.8878   -0.1074 C   0  0  0  0  0  0  0  0  0  0  0  0
    6.3092    1.4329   -0.2270 C   0  0  0  0  0  0  0  0  0  0  0  0
    7.1637    1.3218    0.8477 C   0  0  0  0  0  0  0  0  0  0  0  0
    8.4676    1.8235    0.7914 C   0  0  0  0  0  0  0  0  0  0  0  0
    8.9025    2.4388   -0.3604 C   0  0  0  0  0  0  0  0  0  0  0  0
   10.1949    2.9253   -0.3895 O   0  0  0  0  0  0  0  0  0  0  0  0
   10.7692    3.5726   -1.4915 C   0  0  0  0  0  0  0  0  0  0  0  0
    8.0768    2.5606   -1.4353 C   0  0  0  0  0  0  0  0  0  0  0  0
    6.7911    2.0572   -1.3573 C   0  0  0  0  0  0  0  0  0  0  0  0
    4.6154   -0.4517    0.1041 C   0  0  0  0  0  0  0  0  0  0  0  0
    5.6046   -1.5039    0.2385 C   0  0  0  0  0  0  0  0  0  0  0  0
    6.4738   -1.8320   -0.8060 C   0  0  0  0  0  0  0  0  0  0  0  0
    7.4134   -2.8346   -0.6670 C   0  0  0  0  0  0  0  0  0  0  0  0
    7.5139   -3.5350    0.5095 C   0  0  0  0  0  0  0  0  0  0  0  0
    8.4721   -4.5313    0.6009 O   0  0  0  0  0  0  0  0  0  0  0  0
    8.7036   -5.3355    1.7270 C   0  0  0  0  0  0  0  0  0  0  0  0
    6.6747   -3.2277    1.5363 C   0  0  0  0  0  0  0  0  0  0  0  0
    5.7301   -2.2222    1.4011 C   0  0  0  0  0  0  0  0  0  0  0  0
    3.2841   -0.5098    0.1458 N   0  0  0  0  0  0  0  0  0  0  0  0
   -0.0449    0.0330    0.1122 S   0  0  0  0  0  0  0  0  0  0  0  0
   -3.7231    1.8478   -0.1015 N   0  0  0  0  0  0  0  0  0  0  0  0
   -4.9186    1.2038   -0.0056 C   0  0  0  0  0  0  0  0  0  0  0  0
   -6.2543    1.7845   -0.0789 C   0  0  0  0  0  0  0  0  0  0  0  0
   -7.0649    1.9351    1.0211 C   0  0  0  0  0  0  0  0  0  0  0  0
   -8.3495    2.4851    0.9249 C   0  0  0  0  0  0  0  0  0  0  0  0
   -8.8567    2.9012   -0.2877 C   0  0  0  0  0  0  0  0  0  0  0  0
  -10.1350    3.4475   -0.3817 O   0  0  0  0  0  0  0  0  0  0  0  0
  -10.9510    3.5912    0.7620 C   0  0  0  0  0  0  0  0  0  0  0  0
   -8.0444    2.7509   -1.3915 C   0  0  0  0  0  0  0  0  0  0  0  0
   -6.7820    2.2105   -1.2973 C   0  0  0  0  0  0  0  0  0  0  0  0
   -5.8063   -2.0454   -0.7370 C   0  0  0  0  0  0  0  0  0  0  0  0
   -6.7160   -3.0639   -0.7289 C   0  0  0  0  0  0  0  0  0  0  0  0
   -7.5902   -5.5942   -1.0189 H   0  0  0  0  0  0  0  0  0  0  0  0
   -8.9325   -4.5235   -1.5819 H   0  0  0  0  0  0  0  0  0  0  0  0
   -9.3263   -5.9040   -0.5360 H   0  0  0  0  0  0  0  0  0  0  0  0
   -7.9980   -2.5495    2.2930 H   0  0  0  0  0  0  0  0  0  0  0  0
   -6.3353   -0.6945    2.2783 H   0  0  0  0  0  0  0  0  0  0  0  0
   -1.1411    3.3189   -0.3308 H   0  0  0  0  0  0  0  0  0  0  0  0
    1.4098    3.1803   -0.3456 H   0  0  0  0  0  0  0  0  0  0  0  0
    6.8363    0.8420    1.7552 H   0  0  0  0  0  0  0  0  0  0  0  0
    9.1362    1.7363    1.6337 H   0  0  0  0  0  0  0  0  0  0  0  0
   11.1422    2.8560   -2.2602 H   0  0  0  0  0  0  0  0  0  0  0  0
   10.0534    4.2897   -1.9492 H   0  0  0  0  0  0  0  0  0  0  0  0
   11.6977    4.0944   -1.1222 H   0  0  0  0  0  0  0  0  0  0  0  0
    8.4606    3.0523   -2.3217 H   0  0  0  0  0  0  0  0  0  0  0  0
    6.1492    2.1544   -2.1989 H   0  0  0  0  0  0  0  0  0  0  0  0
    6.3676   -1.2671   -1.7056 H   0  0  0  0  0  0  0  0  0  0  0  0
    8.0635   -3.0653   -1.4772 H   0  0  0  0  0  0  0  0  0  0  0  0
    8.5143   -4.7819    2.6628 H   0  0  0  0  0  0  0  0  0  0  0  0
    9.7870   -5.6555    1.7413 H   0  0  0  0  0  0  0  0  0  0  0  0
    8.0947   -6.2539    1.6555 H   0  0  0  0  0  0  0  0  0  0  0  0
    6.7533   -3.7769    2.4590 H   0  0  0  0  0  0  0  0  0  0  0  0
    5.0776   -2.0055    2.2423 H   0  0  0  0  0  0  0  0  0  0  0  0
    2.7301   -1.3847    0.2919 H   0  0  0  0  0  0  0  0  0  0  0  0
   -3.6403    2.8656   -0.2411 H   0  0  0  0  0  0  0  0  0  0  0  0
   -6.7123    1.6282    1.9995 H   0  0  0  0  0  0  0  0  0  0  0  0
   -8.9696    2.5930    1.8134 H   0  0  0  0  0  0  0  0  0  0  0  0
  -10.6914    4.5174    1.3429 H   0  0  0  0  0  0  0  0  0  0  0  0
  -10.9562    2.7102    1.4241 H   0  0  0  0  0  0  0  0  0  0  0  0
  -12.0174    3.7489    0.4600 H   0  0  0  0  0  0  0  0  0  0  0  0
   -8.4434    3.0783   -2.3434 H   0  0  0  0  0  0  0  0  0  0  0  0
   -6.1400    2.0910   -2.1649 H   0  0  0  0  0  0  0  0  0  0  0  0
   -5.1854   -1.9297   -1.6366 H   0  0  0  0  0  0  0  0  0  0  0  0
   -6.7872   -3.7159   -1.6117 H   0  0  0  0  0  0  0  0  0  0  0  0
  1  2  1  0
  2  3  1  0
  3  4  2  0
  4  5  1  0
  5  6  2  0
  6  7  1  0
  7  8  1  0
  8  9  2  0
  9 10  1  0
 10 11  2  0
 11 12  1  0
 12 13  2  0
 13 14  1  0
 14 15  2  0
 15 16  1  0
 16 17  1  0
 17 18  2  0
 18 19  1  0
 19 20  2  0
 20 21  1  0
 21 22  1  0
 20 23  1  0
 23 24  2  0
 16 25  2  0
 25 26  1  0
 26 27  2  0
 27 28  1  0
 28 29  2  0
 29 30  1  0
 30 31  1  0
 29 32  1  0
 32 33  2  0
 25 34  1  0
 13 35  1  0
  9 36  1  0
 36 37  1  0
 37 38  1  0
 38 39  2  0
 39 40  1  0
 40 41  2  0
 41 42  1  0
 42 43  1  0
 41 44  1  0
 44 45  2  0
  6 46  1  0
 46 47  2  0
 47  3  1  0
 37  7  2  0
 45 38  1  0
 35 10  1  0
 34 14  1  0
 24 17  1  0
 33 26  1  0
  1 48  1  0
  1 49  1  0
  1 50  1  0
  4 51  1  0
  5 52  1  0
 11 53  1  0
 12 54  1  0
 18 55  1  0
 19 56  1  0
 22 57  1  0
 22 58  1  0
 22 59  1  0
 23 60  1  0
 24 61  1  0
 27 62  1  0
 28 63  1  0
 31 64  1  0
 31 65  1  0
 31 66  1  0
 32 67  1  0
 33 68  1  0
 34 69  1  0
 36 70  1  0
 39 71  1  0
 40 72  1  0
 43 73  1  0
 43 74  1  0
 43 75  1  0
 44 76  1  0
 45 77  1  0
 46 78  1  0
 47 79  1  0
M  END
