
     RDKit          3D

 36 40  0  0  0  0  0  0  0  0999 V2000
    5.1351    1.3376   -0.4280 O   0  0  0  0  0  0  0  0  0  0  0  0
    4.4312    0.1976   -0.0597 C   0  0  0  0  0  0  0  0  0  0  0  0
    2.9638    0.4769   -0.1610 C   0  0  0  0  0  0  0  0  0  0  0  0
    2.5025    1.6972   -0.5634 C   0  0  0  0  0  0  0  0  0  0  0  0
    1.1528    1.9618   -0.6591 C   0  0  0  0  0  0  0  0  0  0  0  0
    0.2673    0.9605   -0.3374 C   0  0  0  0  0  0  0  0  0  0  0  0
   -1.0932    1.2055   -0.4268 C   0  0  0  0  0  0  0  0  0  0  0  0
   -1.5892    2.4208   -0.8278 C   0  0  0  0  0  0  0  0  0  0  0  0
   -2.9524    2.5881   -0.8918 C   0  0  0  0  0  0  0  0  0  0  0  0
   -3.8239    1.5743   -0.5659 C   0  0  0  0  0  0  0  0  0  0  0  0
   -3.3258    0.3495   -0.1618 C   0  0  0  0  0  0  0  0  0  0  0  0
   -4.2000   -0.6783    0.1687 C   0  0  0  0  0  0  0  0  0  0  0  0
   -3.7481   -1.9022    0.5722 C   0  0  0  0  0  0  0  0  0  0  0  0
   -2.3858   -2.0892    0.6426 C   0  0  0  0  0  0  0  0  0  0  0  0
   -1.5045   -1.0875    0.3208 C   0  0  0  0  0  0  0  0  0  0  0  0
   -0.1308   -1.3272    0.4085 C   0  0  0  0  0  0  0  0  0  0  0  0
    0.3425   -2.5557    0.8137 C   0  0  0  0  0  0  0  0  0  0  0  0
    1.7105   -2.7888    0.8992 C   0  0  0  0  0  0  0  0  0  0  0  0
    2.5696   -1.7742    0.5730 C   0  0  0  0  0  0  0  0  0  0  0  0
    2.0865   -0.5395    0.1657 C   0  0  0  0  0  0  0  0  0  0  0  0
    0.7421   -0.2923    0.0757 C   0  0  0  0  0  0  0  0  0  0  0  0
   -1.9620    0.1714   -0.0942 C   0  0  0  0  0  0  0  0  0  0  0  0
    4.9486    2.0956    0.1578 H   0  0  0  0  0  0  0  0  0  0  0  0
    4.7036   -0.0207    0.9983 H   0  0  0  0  0  0  0  0  0  0  0  0
    4.7331   -0.6341   -0.7077 H   0  0  0  0  0  0  0  0  0  0  0  0
    3.1897    2.5071   -0.8238 H   0  0  0  0  0  0  0  0  0  0  0  0
    0.7834    2.9183   -0.9746 H   0  0  0  0  0  0  0  0  0  0  0  0
   -0.9868    3.2473   -1.0942 H   0  0  0  0  0  0  0  0  0  0  0  0
   -3.4096    3.5377   -1.2056 H   0  0  0  0  0  0  0  0  0  0  0  0
   -4.8987    1.6880   -0.6104 H   0  0  0  0  0  0  0  0  0  0  0  0
   -5.2795   -0.4788    0.0961 H   0  0  0  0  0  0  0  0  0  0  0  0
   -4.4550   -2.7038    0.8298 H   0  0  0  0  0  0  0  0  0  0  0  0
   -2.0304   -3.0425    0.9570 H   0  0  0  0  0  0  0  0  0  0  0  0
   -0.2648   -3.3851    1.0810 H   0  0  0  0  0  0  0  0  0  0  0  0
    2.1285   -3.7346    1.2115 H   0  0  0  0  0  0  0  0  0  0  0  0
    3.6498   -1.9004    0.6216 H   0  0  0  0  0  0  0  0  0  0  0  0
  1  2  1  0
  2  3  1  0
  3  4  2  0
  4  5  1  0
  5  6  2  0
  6  7  1  0
  7  8  2  0
  8  9  1  0
  9 10  2  0
 10 11  1  0
 11 12  1  0
 12 13  2  0
 13 14  1  0
 14 15  2  0
 15 16  1  0
 16 17  1  0
 17 18  2  0
 18 19  1  0
 19 20  2  0
 20 21  1  0
 15 22  1  0
 20  3  1  0
 21  6  1  0
 22  7  1  0
 22 11  2  0
 21 16  2  0
  1 23  1  0
  2 24  1  0
  2 25  1  0
  4 26  1  0
  5 27  1  0
  8 28  1  0
  9 29  1  0
 10 30  1  0
 12 31  1  0
 13 32  1  0
 14 33  1  0
 17 34  1  0
 18 35  1  0
 19 36  1  0
M  END
