
     RDKit          3D

 40 42  0  0  0  0  0  0  0  0999 V2000
   -5.5485   -0.9613    1.2977 C   0  0  0  0  0  0  0  0  0  0  0  0
   -4.1897   -0.5882    1.2004 O   0  0  0  0  0  0  0  0  0  0  0  0
   -3.4644   -0.8946    0.0488 C   0  0  0  0  0  0  0  0  0  0  0  0
   -4.0786   -1.5052   -0.8684 O   0  0  0  0  0  0  0  0  0  0  0  0
   -2.0631   -0.5290   -0.0934 C   0  0  0  0  0  0  0  0  0  0  0  0
   -1.6409    0.6725   -0.6322 C   0  0  0  0  0  0  0  0  0  0  0  0
   -2.5007    1.7393   -1.1318 C   0  0  0  0  0  0  0  0  0  0  0  0
   -2.8961    1.8259   -2.3034 O   0  0  0  0  0  0  0  0  0  0  0  0
   -2.8888    2.7112   -0.2142 O   0  0  0  0  0  0  0  0  0  0  0  0
   -3.7082    3.7982   -0.5263 C   0  0  0  0  0  0  0  0  0  0  0  0
   -0.2575    0.6156   -0.5827 C   0  0  0  0  0  0  0  0  0  0  0  0
    0.6604    1.5567   -0.9947 C   0  0  0  0  0  0  0  0  0  0  0  0
    2.0031    1.2342   -0.8251 C   0  0  0  0  0  0  0  0  0  0  0  0
    2.3649    0.0386   -0.2755 C   0  0  0  0  0  0  0  0  0  0  0  0
    3.7710   -0.3392   -0.0798 C   0  0  0  0  0  0  0  0  0  0  0  0
    4.0958   -1.5632    0.4821 C   0  0  0  0  0  0  0  0  0  0  0  0
    5.3750   -1.9762    0.6917 C   0  0  0  0  0  0  0  0  0  0  0  0
    6.4132   -1.1569    0.3371 C   0  0  0  0  0  0  0  0  0  0  0  0
    6.1393    0.0710   -0.2257 C   0  0  0  0  0  0  0  0  0  0  0  0
    4.8205    0.4755   -0.4321 C   0  0  0  0  0  0  0  0  0  0  0  0
    1.3969   -0.8423    0.1083 N   0  0  0  0  0  0  0  0  0  0  0  0
    0.1153   -0.5665   -0.0390 N   0  0  0  0  0  0  0  0  0  0  0  0
   -0.9833   -1.2944    0.2730 C   0  0  0  0  0  0  0  0  0  0  0  0
   -1.0555   -2.6473    0.8867 C   0  0  0  0  0  0  0  0  0  0  0  0
   -5.7973   -1.2165    2.3432 H   0  0  0  0  0  0  0  0  0  0  0  0
   -5.8013   -1.8377    0.6692 H   0  0  0  0  0  0  0  0  0  0  0  0
   -6.2319   -0.1445    0.9706 H   0  0  0  0  0  0  0  0  0  0  0  0
   -3.8267    3.9596   -1.6111 H   0  0  0  0  0  0  0  0  0  0  0  0
   -4.6761    3.6495   -0.0046 H   0  0  0  0  0  0  0  0  0  0  0  0
   -3.2393    4.7092   -0.0811 H   0  0  0  0  0  0  0  0  0  0  0  0
    0.3302    2.4848   -1.4222 H   0  0  0  0  0  0  0  0  0  0  0  0
    2.7200    1.9512   -1.1387 H   0  0  0  0  0  0  0  0  0  0  0  0
    3.2602   -2.2058    0.7599 H   0  0  0  0  0  0  0  0  0  0  0  0
    5.5373   -2.9482    1.1362 H   0  0  0  0  0  0  0  0  0  0  0  0
    7.4265   -1.4867    0.5043 H   0  0  0  0  0  0  0  0  0  0  0  0
    6.9846    0.6899   -0.4926 H   0  0  0  0  0  0  0  0  0  0  0  0
    4.6469    1.4311   -0.8694 H   0  0  0  0  0  0  0  0  0  0  0  0
   -2.0402   -3.0906    0.6584 H   0  0  0  0  0  0  0  0  0  0  0  0
   -0.9556   -2.5732    2.0021 H   0  0  0  0  0  0  0  0  0  0  0  0
   -0.2175   -3.2464    0.4746 H   0  0  0  0  0  0  0  0  0  0  0  0
  1  2  1  0
  2  3  1  0
  3  4  2  0
  3  5  1  0
  5  6  1  0
  6  7  1  0
  7  8  2  0
  7  9  1  0
  9 10  1  0
  6 11  2  0
 11 12  1  0
 12 13  2  0
 13 14  1  0
 14 15  1  0
 15 16  2  0
 16 17  1  0
 17 18  2  0
 18 19  1  0
 19 20  2  0
 14 21  2  0
 21 22  1  0
 22 23  1  0
 23 24  1  0
 23  5  2  0
 22 11  1  0
 20 15  1  0
  1 25  1  0
  1 26  1  0
  1 27  1  0
 10 28  1  0
 10 29  1  0
 10 30  1  0
 12 31  1  0
 13 32  1  0
 16 33  1  0
 17 34  1  0
 18 35  1  0
 19 36  1  0
 20 37  1  0
 24 38  1  0
 24 39  1  0
 24 40  1  0
M  END
