
     RDKit          3D

 12 12  0  0  0  0  0  0  0  0999 V2000
    2.6871    1.1158    0.1443 O   0  0  0  0  0  0  0  0  0  0  0  0
    2.0281    0.0602   -0.0313 C   0  0  0  0  0  0  0  0  0  0  0  0
    0.5750    0.0192   -0.0085 C   0  0  0  0  0  0  0  0  0  0  0  0
   -0.2675    1.0928    0.2014 C   0  0  0  0  0  0  0  0  0  0  0  0
   -1.5531    0.6032    0.1403 C   0  0  0  0  0  0  0  0  0  0  0  0
   -1.4422   -0.7487   -0.1043 C   0  0  0  0  0  0  0  0  0  0  0  0
   -0.1490   -1.0941   -0.1930 N   0  0  0  0  0  0  0  0  0  0  0  0
    2.5852   -0.8457   -0.2052 H   0  0  0  0  0  0  0  0  0  0  0  0
    0.0722    2.1174    0.3781 H   0  0  0  0  0  0  0  0  0  0  0  0
   -2.4700    1.1908    0.2647 H   0  0  0  0  0  0  0  0  0  0  0  0
   -2.2752   -1.4313   -0.2094 H   0  0  0  0  0  0  0  0  0  0  0  0
    0.2094   -2.0797   -0.3771 H   0  0  0  0  0  0  0  0  0  0  0  0
  1  2  2  0
  2  3  1  0
  3  4  2  0
  4  5  1  0
  5  6  2  0
  6  7  1  0
  7  3  1  0
  2  8  1  0
  4  9  1  0
  5 10  1  0
  6 11  1  0
  7 12  1  0
M  END
