
     RDKit          3D

 77 84  0  0  0  0  0  0  0  0999 V2000
   -2.0602   -3.9483   -0.1094 C   0  0  0  0  0  0  0  0  0  0  0  0
   -2.1889   -2.4746    0.0336 C   0  0  0  0  0  0  0  0  0  0  0  0
   -3.3131   -1.8251    0.2230 N   0  0  0  0  0  4  0  0  0  0  0  0
   -3.0601   -0.4316    0.3137 C   0  0  0  0  0  0  0  0  0  0  0  0
   -4.0096    0.4657    0.5114 C   0  0  0  0  0  0  0  0  0  0  0  0
   -3.6655    1.8743    0.5907 C   0  0  0  0  0  0  0  0  0  0  0  0
   -4.1553    2.6635    1.6099 C   0  0  0  0  0  0  0  0  0  0  0  0
   -3.8249    4.0102    1.6374 C   0  0  0  0  0  0  0  0  0  0  0  0
   -3.0224    4.5963    0.6834 C   0  0  0  0  0  0  0  0  0  0  0  0
   -2.6723    6.0080    0.7067 C   0  0  0  0  0  0  0  0  0  0  0  0
   -1.9418    6.4799   -0.1849 O   0  0  0  0  0  0  0  0  0  0  0  0
   -2.5516    3.7684   -0.3223 C   0  0  0  0  0  0  0  0  0  0  0  0
   -2.8592    2.4250   -0.3827 C   0  0  0  0  0  0  0  0  0  0  0  0
   -5.4133    0.0656    0.6416 C   0  0  0  0  0  0  0  0  0  0  0  0
   -6.5801    0.8201    0.8377 C   0  0  0  0  0  0  0  0  0  0  0  0
   -7.5994   -0.0735    0.8698 C   0  0  0  0  0  0  0  0  0  0  0  0
   -7.0859   -1.3380    0.6994 C   0  0  0  0  0  0  0  0  0  0  0  0
   -7.8807   -2.6106    0.6724 C   0  0  0  0  0  0  0  0  0  0  0  0
   -5.7299   -1.2371    0.5590 N   0  0  0  0  0  0  0  0  0  0  0  0
   -4.7338   -2.3619    0.3465 B   0  0  0  0  0  4  0  0  0  0  0  0
   -5.0685   -3.1636   -0.8361 F   0  0  0  0  0  0  0  0  0  0  0  0
   -4.8358   -3.2854    1.4895 F   0  0  0  0  0  0  0  0  0  0  0  0
   -1.5956   -0.3167    0.1508 C   0  0  0  0  0  0  0  0  0  0  0  0
   -1.0885   -1.5297   -0.0146 C   0  0  0  0  0  0  0  0  0  0  0  0
    0.3254   -1.8013   -0.2055 C   0  0  0  0  0  0  0  0  0  0  0  0
    1.3507   -0.8450   -0.2440 C   0  0  0  0  0  0  0  0  0  0  0  0
    2.5499   -1.4643   -0.4401 C   0  0  0  0  0  0  0  0  0  0  0  0
    2.3181   -2.7809   -0.5262 N   0  0  0  0  0  0  0  0  0  0  0  0
    0.9923   -2.9891   -0.3874 C   0  0  0  0  0  0  0  0  0  0  0  0
    3.4054   -3.8106   -0.7371 B   0  0  0  0  0  4  0  0  0  0  0  0
    3.0624   -4.5550   -1.9613 F   0  0  0  0  0  0  0  0  0  0  0  0
    3.4173   -4.7802    0.3555 F   0  0  0  0  0  0  0  0  0  0  0  0
    4.7788   -3.1964   -0.8307 N   0  0  0  0  0  4  0  0  0  0  0  0
    5.9127   -3.7989   -1.0069 C   0  0  0  0  0  0  0  0  0  0  0  0
    6.9524   -2.7802   -1.0293 C   0  0  0  0  0  0  0  0  0  0  0  0
    6.4182   -1.5813   -0.8654 C   0  0  0  0  0  0  0  0  0  0  0  0
    4.9604   -1.7900   -0.7258 C   0  0  0  0  0  0  0  0  0  0  0  0
    3.9319   -0.9493   -0.5454 C   0  0  0  0  0  0  0  0  0  0  0  0
    4.1508    0.4672   -0.4101 C   0  0  0  0  0  0  0  0  0  0  0  0
    3.5545    1.3489   -1.2740 C   0  0  0  0  0  0  0  0  0  0  0  0
    2.7212    0.9056   -2.4240 C   0  0  0  0  0  0  0  0  0  0  0  0
    3.7293    2.7326   -1.1205 C   0  0  0  0  0  0  0  0  0  0  0  0
    4.5080    3.2179   -0.0934 C   0  0  0  0  0  0  0  0  0  0  0  0
    4.6709    4.7068    0.0370 C   0  0  0  0  0  0  0  0  0  0  0  0
    5.0995    2.3424    0.7627 C   0  0  0  0  0  0  0  0  0  0  0  0
    4.9210    0.9613    0.6055 C   0  0  0  0  0  0  0  0  0  0  0  0
    5.5948    0.0812    1.6152 C   0  0  0  0  0  0  0  0  0  0  0  0
   -3.0921   -4.3801   -0.0201 H   0  0  0  0  0  0  0  0  0  0  0  0
   -1.5015   -4.4185    0.7275 H   0  0  0  0  0  0  0  0  0  0  0  0
   -1.7223   -4.2590   -1.1174 H   0  0  0  0  0  0  0  0  0  0  0  0
   -4.7928    2.2719    2.4142 H   0  0  0  0  0  0  0  0  0  0  0  0
   -4.1907    4.6775    2.4279 H   0  0  0  0  0  0  0  0  0  0  0  0
   -3.0395    6.6401    1.4853 H   0  0  0  0  0  0  0  0  0  0  0  0
   -1.9200    4.2048   -1.0822 H   0  0  0  0  0  0  0  0  0  0  0  0
   -2.4463    1.8523   -1.2200 H   0  0  0  0  0  0  0  0  0  0  0  0
   -6.5687    1.8978    0.9276 H   0  0  0  0  0  0  0  0  0  0  0  0
   -8.6490    0.2221    1.0120 H   0  0  0  0  0  0  0  0  0  0  0  0
   -7.2995   -3.4316    1.1217 H   0  0  0  0  0  0  0  0  0  0  0  0
   -8.0122   -2.8584   -0.4180 H   0  0  0  0  0  0  0  0  0  0  0  0
   -8.8349   -2.4877    1.1844 H   0  0  0  0  0  0  0  0  0  0  0  0
   -1.0108    0.5913    0.1650 H   0  0  0  0  0  0  0  0  0  0  0  0
    1.1822    0.1997   -0.1276 H   0  0  0  0  0  0  0  0  0  0  0  0
    0.5239   -3.9607   -0.4162 H   0  0  0  0  0  0  0  0  0  0  0  0
    6.0504   -4.8731   -1.1168 H   0  0  0  0  0  0  0  0  0  0  0  0
    8.0193   -2.9709   -1.1614 H   0  0  0  0  0  0  0  0  0  0  0  0
    6.9291   -0.6192   -0.8382 H   0  0  0  0  0  0  0  0  0  0  0  0
    3.1358    1.3956   -3.3581 H   0  0  0  0  0  0  0  0  0  0  0  0
    1.6603    1.1721   -2.2834 H   0  0  0  0  0  0  0  0  0  0  0  0
    2.8912   -0.1722   -2.5889 H   0  0  0  0  0  0  0  0  0  0  0  0
    3.2535    3.3983   -1.8061 H   0  0  0  0  0  0  0  0  0  0  0  0
    4.7135    5.0058    1.1024 H   0  0  0  0  0  0  0  0  0  0  0  0
    5.5514    5.0178   -0.5354 H   0  0  0  0  0  0  0  0  0  0  0  0
    3.7735    5.1720   -0.3947 H   0  0  0  0  0  0  0  0  0  0  0  0
    5.7223    2.7111    1.5849 H   0  0  0  0  0  0  0  0  0  0  0  0
    5.1304   -0.9070    1.6135 H   0  0  0  0  0  0  0  0  0  0  0  0
    5.4607    0.6048    2.6051 H   0  0  0  0  0  0  0  0  0  0  0  0
    6.6934    0.0809    1.4637 H   0  0  0  0  0  0  0  0  0  0  0  0
  1  2  1  0
  2  3  2  0
  3  4  1  0
  4  5  2  0
  5  6  1  0
  6  7  2  0
  7  8  1  0
  8  9  2  0
  9 10  1  0
 10 11  2  0
  9 12  1  0
 12 13  2  0
  5 14  1  0
 14 15  2  0
 15 16  1  0
 16 17  2  0
 17 18  1  0
 17 19  1  0
 19 20  1  0
 20 21  1  0
 20 22  1  0
  4 23  1  0
 23 24  2  0
 24 25  1  0
 25 26  1  0
 26 27  2  0
 27 28  1  0
 28 29  1  0
 28 30  1  0
 30 31  1  0
 30 32  1  0
 30 33  1  0
 33 34  2  0
 34 35  1  0
 35 36  2  0
 36 37  1  0
 37 38  2  0
 38 39  1  0
 39 40  2  0
 40 41  1  0
 40 42  1  0
 42 43  2  0
 43 44  1  0
 43 45  1  0
 45 46  2  0
 46 47  1  0
 24  2  1  0
 29 25  2  0
 37 33  1  0
 46 39  1  0
 20  3  1  0
 38 27  1  0
 13  6  1  0
 19 14  1  0
  1 48  1  0
  1 49  1  0
  1 50  1  0
  7 51  1  0
  8 52  1  0
 10 53  1  0
 12 54  1  0
 13 55  1  0
 15 56  1  0
 16 57  1  0
 18 58  1  0
 18 59  1  0
 18 60  1  0
 23 61  1  0
 26 62  1  0
 29 63  1  0
 34 64  1  0
 35 65  1  0
 36 66  1  0
 41 67  1  0
 41 68  1  0
 41 69  1  0
 42 70  1  0
 44 71  1  0
 44 72  1  0
 44 73  1  0
 45 74  1  0
 47 75  1  0
 47 76  1  0
 47 77  1  0
M  CHG  4   3   1  20  -1  30  -1  33   1
M  END
