
     RDKit          3D

124127  0  0  0  0  0  0  0  0999 V2000
   11.8450   -0.6665    2.0215 C   0  0  0  0  0  0  0  0  0  0  0  0
   11.0550    0.2197    1.1393 C   0  0  0  0  0  0  0  0  0  0  0  0
   10.9026   -0.2559   -0.2695 C   0  0  0  0  0  0  0  0  0  0  0  0
   10.2386   -1.5722   -0.4248 C   0  0  0  0  0  0  0  0  0  0  0  0
    8.8759   -1.7419    0.0942 C   0  0  0  0  0  0  0  0  0  0  0  0
    7.8129   -0.8146   -0.4792 C   0  0  0  0  0  0  0  0  0  0  0  0
    7.6986   -1.0130   -1.9500 C   0  0  0  0  0  0  0  0  0  0  0  0
    6.8106   -0.1635   -2.7454 C   0  0  0  0  0  0  0  0  0  0  0  0
    5.3580   -0.0688   -2.5084 C   0  0  0  0  0  0  0  0  0  0  0  0
    4.8909    0.5272   -1.2204 C   0  0  0  0  0  0  0  0  0  0  0  0
    3.4244    0.5653   -1.1670 N   0  0  0  0  0  0  0  0  0  0  0  0
    2.6671    1.6535   -1.6268 C   0  0  0  0  0  0  0  0  0  0  0  0
    3.2463    2.6748   -2.1250 O   0  0  0  0  0  0  0  0  0  0  0  0
    1.2003    1.6112   -1.5309 C   0  0  0  0  0  0  0  0  0  0  0  0
    0.4562    2.6992   -1.9950 C   0  0  0  0  0  0  0  0  0  0  0  0
   -0.9213    2.7299   -1.9378 C   0  0  0  0  0  0  0  0  0  0  0  0
   -1.5875    3.8470   -2.4780 N   0  0  0  0  0  0  0  0  0  0  0  0
   -0.8914    5.0784   -2.8622 C   0  0  0  0  0  0  0  0  0  0  0  0
   -0.4032    5.8059   -1.6433 C   0  0  0  0  0  0  0  0  0  0  0  0
   -1.5635    6.1790   -0.7745 C   0  0  0  0  0  0  0  0  0  0  0  0
   -2.5069    6.8977   -1.2935 O   0  0  0  0  0  0  0  0  0  0  0  0
   -2.6185    8.0720   -1.7955 C   0  0  0  0  0  0  0  0  0  0  0  0
   -1.9420    8.5641   -3.0315 C   0  0  0  0  0  0  0  0  0  0  0  0
   -0.5816    8.5771   -3.0556 O   0  0  0  0  0  0  0  0  0  0  0  0
   -1.6146    1.6659   -1.4105 C   0  0  0  0  0  0  0  0  0  0  0  0
   -0.8813    0.5645   -0.9410 C   0  0  0  0  0  0  0  0  0  0  0  0
   -1.5588   -0.5060   -0.4166 C   0  0  0  0  0  0  0  0  0  0  0  0
   -0.8409   -1.5789    0.0324 C   0  0  0  0  0  0  0  0  0  0  0  0
    0.5622   -1.6231   -0.0231 C   0  0  0  0  0  0  0  0  0  0  0  0
    1.2098   -2.8159    0.3782 N   0  0  0  0  0  0  0  0  0  0  0  0
    0.4862   -3.8493    1.1255 C   0  0  0  0  0  0  0  0  0  0  0  0
    0.1970   -3.4615    2.5395 C   0  0  0  0  0  0  0  0  0  0  0  0
   -0.5454   -4.5824    3.2256 C   0  0  0  0  0  0  0  0  0  0  0  0
    0.1108   -5.7877    3.2363 O   0  0  0  0  0  0  0  0  0  0  0  0
    1.3362   -5.7086    3.8722 C   0  0  0  0  0  0  0  0  0  0  0  0
    1.9427   -7.1206    3.8494 C   0  0  0  0  0  0  0  0  0  0  0  0
    2.0757   -7.4923    2.5180 O   0  0  0  0  0  0  0  0  0  0  0  0
    1.2474   -0.5580   -0.5420 C   0  0  0  0  0  0  0  0  0  0  0  0
    0.5104    0.5437   -1.0054 C   0  0  0  0  0  0  0  0  0  0  0  0
    2.7067   -0.5518   -0.6194 C   0  0  0  0  0  0  0  0  0  0  0  0
    3.4022   -1.5191   -0.2102 O   0  0  0  0  0  0  0  0  0  0  0  0
   -3.0466   -0.5549   -0.3239 C   0  0  0  0  0  0  0  0  0  0  0  0
   -3.5723   -1.5849    0.1694 O   0  0  0  0  0  0  0  0  0  0  0  0
   -3.8039    0.5173   -0.7803 N   0  0  0  0  0  0  0  0  0  0  0  0
   -5.2468    0.6501   -0.7959 C   0  0  0  0  0  0  0  0  0  0  0  0
   -5.7507    1.3428    0.4355 C   0  0  0  0  0  0  0  0  0  0  0  0
   -5.5731    0.5337    1.6558 C   0  0  0  0  0  0  0  0  0  0  0  0
   -6.2959   -0.7291    1.7209 C   0  0  0  0  0  0  0  0  0  0  0  0
   -7.7604   -0.7362    1.8342 C   0  0  0  0  0  0  0  0  0  0  0  0
   -8.5512   -0.1222    0.7736 C   0  0  0  0  0  0  0  0  0  0  0  0
  -10.0296   -0.3751    0.8520 C   0  0  0  0  0  0  0  0  0  0  0  0
  -10.4916   -1.7176    0.5461 C   0  0  0  0  0  0  0  0  0  0  0  0
  -10.0387   -2.9084    1.2637 C   0  0  0  0  0  0  0  0  0  0  0  0
  -10.9019   -4.0879    0.6801 C   0  0  0  0  0  0  0  0  0  0  0  0
   -3.0601    1.6451   -1.3311 C   0  0  0  0  0  0  0  0  0  0  0  0
   -3.7786    2.6121   -1.7352 O   0  0  0  0  0  0  0  0  0  0  0  0
   11.5588   -1.7200    2.0250 H   0  0  0  0  0  0  0  0  0  0  0  0
   12.9216   -0.6262    1.6851 H   0  0  0  0  0  0  0  0  0  0  0  0
   11.8593   -0.2210    3.0507 H   0  0  0  0  0  0  0  0  0  0  0  0
   11.4627    1.2491    1.1854 H   0  0  0  0  0  0  0  0  0  0  0  0
   10.0184    0.3103    1.5568 H   0  0  0  0  0  0  0  0  0  0  0  0
   11.9582   -0.4043   -0.6601 H   0  0  0  0  0  0  0  0  0  0  0  0
   10.4605    0.4868   -0.9592 H   0  0  0  0  0  0  0  0  0  0  0  0
   10.2881   -1.8449   -1.5170 H   0  0  0  0  0  0  0  0  0  0  0  0
   10.8962   -2.3776    0.0401 H   0  0  0  0  0  0  0  0  0  0  0  0
    8.5348   -2.7812   -0.1949 H   0  0  0  0  0  0  0  0  0  0  0  0
    8.8124   -1.7337    1.1999 H   0  0  0  0  0  0  0  0  0  0  0  0
    6.8651   -1.2890   -0.0422 H   0  0  0  0  0  0  0  0  0  0  0  0
    7.8396    0.1987   -0.1081 H   0  0  0  0  0  0  0  0  0  0  0  0
    7.3295   -2.0929   -2.1080 H   0  0  0  0  0  0  0  0  0  0  0  0
    8.7281   -0.9826   -2.4361 H   0  0  0  0  0  0  0  0  0  0  0  0
    6.9497   -0.3751   -3.8766 H   0  0  0  0  0  0  0  0  0  0  0  0
    7.2597    0.8929   -2.6830 H   0  0  0  0  0  0  0  0  0  0  0  0
    4.8853   -1.1090   -2.6386 H   0  0  0  0  0  0  0  0  0  0  0  0
    4.8432    0.4831   -3.3747 H   0  0  0  0  0  0  0  0  0  0  0  0
    5.2368    1.5945   -1.1117 H   0  0  0  0  0  0  0  0  0  0  0  0
    5.1888   -0.0584   -0.3568 H   0  0  0  0  0  0  0  0  0  0  0  0
    1.0547    3.5120   -2.4237 H   0  0  0  0  0  0  0  0  0  0  0  0
   -2.5905    3.8659   -2.6549 H   0  0  0  0  0  0  0  0  0  0  0  0
   -1.5355    5.7290   -3.4988 H   0  0  0  0  0  0  0  0  0  0  0  0
   -0.0309    4.7912   -3.4811 H   0  0  0  0  0  0  0  0  0  0  0  0
    0.1984    5.0597   -1.0005 H   0  0  0  0  0  0  0  0  0  0  0  0
    0.2922    6.6135   -1.7935 H   0  0  0  0  0  0  0  0  0  0  0  0
   -1.1263    6.6235    0.2060 H   0  0  0  0  0  0  0  0  0  0  0  0
   -1.9636    5.1678   -0.3754 H   0  0  0  0  0  0  0  0  0  0  0  0
   -2.3756    8.8476   -0.9486 H   0  0  0  0  0  0  0  0  0  0  0  0
   -3.7398    8.2855   -2.0168 H   0  0  0  0  0  0  0  0  0  0  0  0
   -2.3474    7.9484   -3.8908 H   0  0  0  0  0  0  0  0  0  0  0  0
   -2.2967    9.6326   -3.1772 H   0  0  0  0  0  0  0  0  0  0  0  0
   -0.2410    9.3513   -3.5996 H   0  0  0  0  0  0  0  0  0  0  0  0
   -1.3883   -2.4102    0.4363 H   0  0  0  0  0  0  0  0  0  0  0  0
    2.1900   -3.0322    0.1568 H   0  0  0  0  0  0  0  0  0  0  0  0
   -0.4431   -4.1414    0.6227 H   0  0  0  0  0  0  0  0  0  0  0  0
    1.0957   -4.7979    1.1814 H   0  0  0  0  0  0  0  0  0  0  0  0
   -0.4411   -2.5266    2.6009 H   0  0  0  0  0  0  0  0  0  0  0  0
    1.1208   -3.2565    3.1398 H   0  0  0  0  0  0  0  0  0  0  0  0
   -0.6876   -4.3079    4.3153 H   0  0  0  0  0  0  0  0  0  0  0  0
   -1.5385   -4.7593    2.7527 H   0  0  0  0  0  0  0  0  0  0  0  0
    2.0403   -5.0066    3.3659 H   0  0  0  0  0  0  0  0  0  0  0  0
    1.2746   -5.3756    4.9249 H   0  0  0  0  0  0  0  0  0  0  0  0
    2.9362   -7.1133    4.3373 H   0  0  0  0  0  0  0  0  0  0  0  0
    1.2927   -7.8330    4.3569 H   0  0  0  0  0  0  0  0  0  0  0  0
    2.7189   -8.1993    2.3432 H   0  0  0  0  0  0  0  0  0  0  0  0
   -5.5924    1.1670   -1.7252 H   0  0  0  0  0  0  0  0  0  0  0  0
   -5.6636   -0.3802   -0.8726 H   0  0  0  0  0  0  0  0  0  0  0  0
   -6.7497    1.7128    0.2626 H   0  0  0  0  0  0  0  0  0  0  0  0
   -5.1012    2.3155    0.5618 H   0  0  0  0  0  0  0  0  0  0  0  0
   -5.7838    1.1823    2.5844 H   0  0  0  0  0  0  0  0  0  0  0  0
   -4.4418    0.3880    1.7940 H   0  0  0  0  0  0  0  0  0  0  0  0
   -6.0373   -1.4174    0.8278 H   0  0  0  0  0  0  0  0  0  0  0  0
   -5.8726   -1.3754    2.5851 H   0  0  0  0  0  0  0  0  0  0  0  0
   -7.9596   -0.0423    2.7816 H   0  0  0  0  0  0  0  0  0  0  0  0
   -8.1268   -1.7145    2.1453 H   0  0  0  0  0  0  0  0  0  0  0  0
   -8.1597   -0.3354   -0.2560 H   0  0  0  0  0  0  0  0  0  0  0  0
   -8.5221    1.0281    0.8362 H   0  0  0  0  0  0  0  0  0  0  0  0
  -10.3880   -0.0105    1.8724 H   0  0  0  0  0  0  0  0  0  0  0  0
  -10.5370    0.3892    0.1470 H   0  0  0  0  0  0  0  0  0  0  0  0
  -10.3361   -1.9638   -0.5801 H   0  0  0  0  0  0  0  0  0  0  0  0
  -11.6414   -1.6925    0.5567 H   0  0  0  0  0  0  0  0  0  0  0  0
  -10.1845   -2.8655    2.3384 H   0  0  0  0  0  0  0  0  0  0  0  0
   -8.9781   -3.2204    1.0466 H   0  0  0  0  0  0  0  0  0  0  0  0
  -10.3700   -4.4133   -0.2336 H   0  0  0  0  0  0  0  0  0  0  0  0
  -11.8813   -3.6590    0.4187 H   0  0  0  0  0  0  0  0  0  0  0  0
  -10.9492   -4.8701    1.4388 H   0  0  0  0  0  0  0  0  0  0  0  0
  1  2  1  0
  2  3  1  0
  3  4  1  0
  4  5  1  0
  5  6  1  0
  6  7  1  0
  7  8  1  0
  8  9  1  0
  9 10  1  0
 10 11  1  0
 11 12  1  0
 12 13  2  0
 12 14  1  0
 14 15  1  0
 15 16  2  0
 16 17  1  0
 17 18  1  0
 18 19  1  0
 19 20  1  0
 20 21  1  0
 21 22  1  0
 22 23  1  0
 23 24  1  0
 16 25  1  0
 25 26  2  0
 26 27  1  0
 27 28  2  0
 28 29  1  0
 29 30  1  0
 30 31  1  0
 31 32  1  0
 32 33  1  0
 33 34  1  0
 34 35  1  0
 35 36  1  0
 36 37  1  0
 29 38  2  0
 38 39  1  0
 38 40  1  0
 40 41  2  0
 27 42  1  0
 42 43  2  0
 42 44  1  0
 44 45  1  0
 45 46  1  0
 46 47  1  0
 47 48  1  0
 48 49  1  0
 49 50  1  0
 50 51  1  0
 51 52  1  0
 52 53  1  0
 53 54  1  0
 44 55  1  0
 55 56  2  0
 40 11  1  0
 39 14  2  0
 55 25  1  0
 39 26  1  0
  1 57  1  0
  1 58  1  0
  1 59  1  0
  2 60  1  0
  2 61  1  0
  3 62  1  0
  3 63  1  0
  4 64  1  0
  4 65  1  0
  5 66  1  0
  5 67  1  0
  6 68  1  0
  6 69  1  0
  7 70  1  0
  7 71  1  0
  8 72  1  0
  8 73  1  0
  9 74  1  0
  9 75  1  0
 10 76  1  0
 10 77  1  0
 15 78  1  0
 17 79  1  0
 18 80  1  0
 18 81  1  0
 19 82  1  0
 19 83  1  0
 20 84  1  0
 20 85  1  0
 22 86  1  0
 22 87  1  0
 23 88  1  0
 23 89  1  0
 24 90  1  0
 28 91  1  0
 30 92  1  0
 31 93  1  0
 31 94  1  0
 32 95  1  0
 32 96  1  0
 33 97  1  0
 33 98  1  0
 35 99  1  0
 35100  1  0
 36101  1  0
 36102  1  0
 37103  1  0
 45104  1  0
 45105  1  0
 46106  1  0
 46107  1  0
 47108  1  0
 47109  1  0
 48110  1  0
 48111  1  0
 49112  1  0
 49113  1  0
 50114  1  0
 50115  1  0
 51116  1  0
 51117  1  0
 52118  1  0
 52119  1  0
 53120  1  0
 53121  1  0
 54122  1  0
 54123  1  0
 54124  1  0
M  END
