
     RDKit          3D

 46 50  0  0  0  0  0  0  0  0999 V2000
    0.6561   -1.3945    1.1371 C   0  0  0  0  0  0  0  0  0  0  0  0
    1.2268   -1.8075    1.8787 C   0  0  0  0  0  0  0  0  0  0  0  0
    2.0499   -2.4227    2.9914 C   0  0  0  0  0  0  0  0  0  0  0  0
    2.2153   -3.7592    3.0263 C   0  0  0  0  0  0  0  0  0  0  0  0
    2.9714   -4.3554    4.0502 C   0  0  0  0  0  0  0  0  0  0  0  0
    3.5498   -3.6135    5.0203 C   0  0  0  0  0  0  0  0  0  0  0  0
    3.3813   -2.2090    4.9882 C   0  0  0  0  0  0  0  0  0  0  0  0
    2.6258   -1.6599    3.9564 C   0  0  0  0  0  0  0  0  0  0  0  0
   -0.1668   -0.8296    0.0729 C   0  0  0  0  0  0  0  0  0  0  0  0
   -0.5043   -1.4948   -1.0232 C   0  0  0  0  0  0  0  0  0  0  0  0
   -1.3135   -0.9095   -2.0873 C   0  0  0  0  0  0  0  0  0  0  0  0
   -1.5248   -1.6977   -3.1856 C   0  0  0  0  0  0  0  0  0  0  0  0
   -2.2318   -1.2121   -4.3003 C   0  0  0  0  0  0  0  0  0  0  0  0
   -2.6919    0.0744   -4.2344 C   0  0  0  0  0  0  0  0  0  0  0  0
   -3.3519    0.6045   -5.3743 C   0  0  0  0  0  0  0  0  0  0  0  0
   -3.7714    1.9008   -5.3525 C   0  0  0  0  0  0  0  0  0  0  0  0
   -3.5666    2.6721   -4.2610 C   0  0  0  0  0  0  0  0  0  0  0  0
   -2.9220    2.2025   -3.1005 C   0  0  0  0  0  0  0  0  0  0  0  0
   -2.5157    0.8991   -3.1716 C   0  0  0  0  0  0  0  0  0  0  0  0
   -1.8003    0.3793   -2.0608 C   0  0  0  0  0  0  0  0  0  0  0  0
   -1.5196    1.1876   -0.9563 N   0  0  0  0  0  0  0  0  0  0  0  0
   -0.6639    0.6387    0.2196 B   0  0  0  0  0  0  0  0  0  0  0  0
    0.2528    1.6018    1.0300 C   0  0  0  0  0  0  0  0  0  0  0  0
    1.1533    2.3840    0.2842 C   0  0  0  0  0  0  0  0  0  0  0  0
    2.0296    3.2246    0.9229 C   0  0  0  0  0  0  0  0  0  0  0  0
    2.0687    3.3428    2.2960 C   0  0  0  0  0  0  0  0  0  0  0  0
    1.1917    2.5839    3.0313 C   0  0  0  0  0  0  0  0  0  0  0  0
    0.3183    1.7429    2.3687 C   0  0  0  0  0  0  0  0  0  0  0  0
    1.7896   -4.4375    2.2774 H   0  0  0  0  0  0  0  0  0  0  0  0
    3.0879   -5.4389    4.0730 H   0  0  0  0  0  0  0  0  0  0  0  0
    4.1452   -4.0133    5.8417 H   0  0  0  0  0  0  0  0  0  0  0  0
    3.8273   -1.6312    5.7621 H   0  0  0  0  0  0  0  0  0  0  0  0
    2.4952   -0.5741    3.9146 H   0  0  0  0  0  0  0  0  0  0  0  0
   -0.1326   -2.5219   -1.0974 H   0  0  0  0  0  0  0  0  0  0  0  0
   -1.1835   -2.7123   -3.2872 H   0  0  0  0  0  0  0  0  0  0  0  0
   -2.4070   -1.8077   -5.1731 H   0  0  0  0  0  0  0  0  0  0  0  0
   -3.4961   -0.0094   -6.2262 H   0  0  0  0  0  0  0  0  0  0  0  0
   -4.2740    2.3007   -6.2517 H   0  0  0  0  0  0  0  0  0  0  0  0
   -3.8941    3.7061   -4.2358 H   0  0  0  0  0  0  0  0  0  0  0  0
   -2.8193    2.8967   -2.3020 H   0  0  0  0  0  0  0  0  0  0  0  0
   -1.8451    2.1655   -0.8636 H   0  0  0  0  0  0  0  0  0  0  0  0
    1.1780    2.3490   -0.7833 H   0  0  0  0  0  0  0  0  0  0  0  0
    2.7427    3.8361    0.3507 H   0  0  0  0  0  0  0  0  0  0  0  0
    2.7934    4.0223    2.7662 H   0  0  0  0  0  0  0  0  0  0  0  0
    1.2052    2.6598    4.1159 H   0  0  0  0  0  0  0  0  0  0  0  0
   -0.3591    1.1359    2.9527 H   0  0  0  0  0  0  0  0  0  0  0  0
  1  2  3  0
  2  3  1  0
  3  4  2  0
  4  5  1  0
  5  6  2  0
  6  7  1  0
  7  8  2  0
  1  9  1  0
  9 10  2  0
 10 11  1  0
 11 12  2  0
 12 13  1  0
 13 14  2  0
 14 15  1  0
 15 16  2  0
 16 17  1  0
 17 18  2  0
 18 19  1  0
 19 20  2  0
 20 21  1  0
 21 22  1  0
 22 23  1  0
 23 24  2  0
 24 25  1  0
 25 26  2  0
 26 27  1  0
 27 28  2  0
  8  3  1  0
 22  9  1  0
 28 23  1  0
 20 11  1  0
 19 14  1  0
  4 29  1  0
  5 30  1  0
  6 31  1  0
  7 32  1  0
  8 33  1  0
 10 34  1  0
 12 35  1  0
 13 36  1  0
 15 37  1  0
 16 38  1  0
 17 39  1  0
 18 40  1  0
 21 41  1  0
 24 42  1  0
 25 43  1  0
 26 44  1  0
 27 45  1  0
 28 46  1  0
M  END
