
     RDKit          3D

 37 39  0  0  0  0  0  0  0  0999 V2000
   -5.6346    0.9399   -0.0741 C   0  0  0  0  0  0  0  0  0  0  0  0
   -4.9405   -0.2660    0.3578 N   0  0  0  0  0  0  0  0  0  0  0  0
   -5.7034   -1.4381    0.6996 C   0  0  0  0  0  0  0  0  0  0  0  0
   -3.5270   -0.2107    0.4219 C   0  0  0  0  0  0  0  0  0  0  0  0
   -2.8023   -0.4168   -0.7337 C   0  0  0  0  0  0  0  0  0  0  0  0
   -1.4244   -0.3616   -0.7291 C   0  0  0  0  0  0  0  0  0  0  0  0
   -0.6975   -0.1023    0.4090 C   0  0  0  0  0  0  0  0  0  0  0  0
    0.7520   -0.0102    0.4120 C   0  0  0  0  0  0  0  0  0  0  0  0
    1.4655   -0.1434   -0.7456 C   0  0  0  0  0  0  0  0  0  0  0  0
    2.8682   -0.0497   -0.7476 C   0  0  0  0  0  0  0  0  0  0  0  0
    3.5914   -0.1685   -1.8963 C   0  0  0  0  0  0  0  0  0  0  0  0
    4.9622   -0.0591   -1.8662 C   0  0  0  0  0  0  0  0  0  0  0  0
    5.6585    0.1735   -0.6825 C   0  0  0  0  0  0  0  0  0  0  0  0
    7.0668    0.2930   -0.6803 N   0  0  0  0  0  4  0  0  0  0  0  0
    7.6862    0.1717   -1.7442 O   0  0  0  0  0  0  0  0  0  0  0  0
    7.7442    0.5392    0.4717 O   0  0  0  0  0  1  0  0  0  0  0  0
    4.8843    0.2871    0.4595 C   0  0  0  0  0  0  0  0  0  0  0  0
    3.5115    0.1787    0.4381 C   0  0  0  0  0  0  0  0  0  0  0  0
    2.7234    0.3013    1.5724 C   0  0  0  0  0  0  0  0  0  0  0  0
    3.3130    0.5089    2.6590 O   0  0  0  0  0  0  0  0  0  0  0  0
    1.4063    0.2051    1.5213 O   0  0  0  0  0  0  0  0  0  0  0  0
   -1.4315    0.1045    1.5765 C   0  0  0  0  0  0  0  0  0  0  0  0
   -2.8050    0.0467    1.5552 C   0  0  0  0  0  0  0  0  0  0  0  0
   -6.4392    0.6671   -0.8021 H   0  0  0  0  0  0  0  0  0  0  0  0
   -6.0103    1.5166    0.7924 H   0  0  0  0  0  0  0  0  0  0  0  0
   -4.9541    1.6030   -0.6836 H   0  0  0  0  0  0  0  0  0  0  0  0
   -5.2544   -1.9264    1.5902 H   0  0  0  0  0  0  0  0  0  0  0  0
   -5.7162   -2.1935   -0.1143 H   0  0  0  0  0  0  0  0  0  0  0  0
   -6.7682   -1.1317    0.9081 H   0  0  0  0  0  0  0  0  0  0  0  0
   -3.3364   -0.6295   -1.6696 H   0  0  0  0  0  0  0  0  0  0  0  0
   -0.9316   -0.5389   -1.6932 H   0  0  0  0  0  0  0  0  0  0  0  0
    1.0083   -0.3239   -1.7028 H   0  0  0  0  0  0  0  0  0  0  0  0
    3.0494   -0.3507   -2.8251 H   0  0  0  0  0  0  0  0  0  0  0  0
    5.5353   -0.1561   -2.8040 H   0  0  0  0  0  0  0  0  0  0  0  0
    5.3786    0.4702    1.4003 H   0  0  0  0  0  0  0  0  0  0  0  0
   -0.8532    0.3087    2.4782 H   0  0  0  0  0  0  0  0  0  0  0  0
   -3.3755    0.2076    2.4709 H   0  0  0  0  0  0  0  0  0  0  0  0
  1  2  1  0
  2  3  1  0
  2  4  1  0
  4  5  2  0
  5  6  1  0
  6  7  2  0
  7  8  1  0
  8  9  2  0
  9 10  1  0
 10 11  2  0
 11 12  1  0
 12 13  2  0
 13 14  1  0
 14 15  2  0
 14 16  1  0
 13 17  1  0
 17 18  2  0
 18 19  1  0
 19 20  2  0
 19 21  1  0
  7 22  1  0
 22 23  2  0
 23  4  1  0
 21  8  1  0
 18 10  1  0
  1 24  1  0
  1 25  1  0
  1 26  1  0
  3 27  1  0
  3 28  1  0
  3 29  1  0
  5 30  1  0
  6 31  1  0
  9 32  1  0
 11 33  1  0
 12 34  1  0
 17 35  1  0
 22 36  1  0
 23 37  1  0
M  CHG  2  14   1  16  -1
M  END
