
     RDKit          3D

 39 42  0  0  0  0  0  0  0  0999 V2000
    6.0323   -0.4497   -0.4344 C   0  0  0  0  0  0  0  0  0  0  0  0
    5.3828    0.6648   -0.8934 C   0  0  0  0  0  0  0  0  0  0  0  0
    4.0151    0.7649   -0.7974 C   0  0  0  0  0  0  0  0  0  0  0  0
    3.2666   -0.2364   -0.2452 C   0  0  0  0  0  0  0  0  0  0  0  0
    1.8109   -0.1534   -0.1335 C   0  0  0  0  0  0  0  0  0  0  0  0
    1.0601    0.8818   -0.5469 N   0  0  0  0  0  0  0  0  0  0  0  0
   -0.2408    0.6251   -0.2917 C   0  0  0  0  0  0  0  0  0  0  0  0
   -1.3138    1.5559   -0.6189 C   0  0  0  0  0  0  0  0  0  0  0  0
   -2.2602    1.2989   -1.5765 C   0  0  0  0  0  0  0  0  0  0  0  0
   -3.2690    2.2242   -1.8463 C   0  0  0  0  0  0  0  0  0  0  0  0
   -3.3694    3.4252   -1.1789 C   0  0  0  0  0  0  0  0  0  0  0  0
   -2.4165    3.6891   -0.2116 C   0  0  0  0  0  0  0  0  0  0  0  0
   -1.4215    2.7799    0.0566 C   0  0  0  0  0  0  0  0  0  0  0  0
   -0.2514   -0.6165    0.2975 C   0  0  0  0  0  0  0  0  0  0  0  0
   -1.4473   -1.2985    0.7400 C   0  0  0  0  0  0  0  0  0  0  0  0
   -2.3052   -1.8535   -0.1611 C   0  0  0  0  0  0  0  0  0  0  0  0
   -3.4745   -2.5131    0.2439 C   0  0  0  0  0  0  0  0  0  0  0  0
   -3.7585   -2.5982    1.6077 C   0  0  0  0  0  0  0  0  0  0  0  0
   -2.8951   -2.0393    2.5253 C   0  0  0  0  0  0  0  0  0  0  0  0
   -1.7467   -1.3948    2.0768 C   0  0  0  0  0  0  0  0  0  0  0  0
    1.0263   -1.0968    0.3941 N   0  0  0  0  0  0  0  0  0  0  0  0
    3.9507   -1.3434    0.2065 C   0  0  0  0  0  0  0  0  0  0  0  0
    5.3052   -1.4745    0.1265 C   0  0  0  0  0  0  0  0  0  0  0  0
    7.1107   -0.5722   -0.4906 H   0  0  0  0  0  0  0  0  0  0  0  0
    5.9746    1.4776   -1.3401 H   0  0  0  0  0  0  0  0  0  0  0  0
    3.5432    1.6659   -1.1750 H   0  0  0  0  0  0  0  0  0  0  0  0
   -2.2153    0.3623   -2.1310 H   0  0  0  0  0  0  0  0  0  0  0  0
   -4.0080    2.0073   -2.6032 H   0  0  0  0  0  0  0  0  0  0  0  0
   -4.1586    4.1269   -1.4039 H   0  0  0  0  0  0  0  0  0  0  0  0
   -2.5112    4.6391    0.3028 H   0  0  0  0  0  0  0  0  0  0  0  0
   -0.6885    3.0107    0.8174 H   0  0  0  0  0  0  0  0  0  0  0  0
   -2.1259   -1.8174   -1.2096 H   0  0  0  0  0  0  0  0  0  0  0  0
   -4.1691   -2.9602   -0.4315 H   0  0  0  0  0  0  0  0  0  0  0  0
   -4.6515   -3.0993    1.9664 H   0  0  0  0  0  0  0  0  0  0  0  0
   -3.1487   -2.1255    3.5659 H   0  0  0  0  0  0  0  0  0  0  0  0
   -1.1022   -0.9764    2.8233 H   0  0  0  0  0  0  0  0  0  0  0  0
    1.2988   -2.0371    0.8117 H   0  0  0  0  0  0  0  0  0  0  0  0
    3.3820   -2.1581    0.6520 H   0  0  0  0  0  0  0  0  0  0  0  0
    5.7894   -2.3853    0.5062 H   0  0  0  0  0  0  0  0  0  0  0  0
  1  2  2  0
  2  3  1  0
  3  4  2  0
  4  5  1  0
  5  6  2  0
  6  7  1  0
  7  8  1  0
  8  9  2  0
  9 10  1  0
 10 11  2  0
 11 12  1  0
 12 13  2  0
  7 14  2  0
 14 15  1  0
 15 16  2  0
 16 17  1  0
 17 18  2  0
 18 19  1  0
 19 20  2  0
 14 21  1  0
  4 22  1  0
 22 23  2  0
 23  1  1  0
 21  5  1  0
 13  8  1  0
 20 15  1  0
  1 24  1  0
  2 25  1  0
  3 26  1  0
  9 27  1  0
 10 28  1  0
 11 29  1  0
 12 30  1  0
 13 31  1  0
 16 32  1  0
 17 33  1  0
 18 34  1  0
 19 35  1  0
 20 36  1  0
 21 37  1  0
 22 38  1  0
 23 39  1  0
M  END
