
     RDKit          3D

 43 47  0  0  0  0  0  0  0  0999 V2000
   -3.3823    0.8652    0.4868 O   0  0  0  0  0  0  0  0  0  0  0  0
   -2.3735    1.4523    0.9539 C   0  0  0  0  0  0  0  0  0  0  0  0
   -2.5185    2.6662    1.7639 C   0  0  0  0  0  0  0  0  0  0  0  0
   -1.2409    3.3864    1.9900 C   0  0  0  0  0  0  0  0  0  0  0  0
   -0.2136    3.1900    0.8978 C   0  0  0  0  0  0  0  0  0  0  0  0
    0.0067    1.7230    0.6539 C   0  0  0  0  0  0  0  0  0  0  0  0
   -1.0120    0.9072    0.6809 C   0  0  0  0  0  0  0  0  0  0  0  0
   -0.8564   -0.5126    0.4374 C   0  0  0  0  0  0  0  0  0  0  0  0
   -1.8379   -1.0810   -0.4777 C   0  0  0  0  0  0  0  0  0  0  0  0
   -2.6936   -2.0568   -0.0799 C   0  0  0  0  0  0  0  0  0  0  0  0
   -3.6381   -2.6145   -0.9374 C   0  0  0  0  0  0  0  0  0  0  0  0
   -3.7010   -2.1553   -2.2339 C   0  0  0  0  0  0  0  0  0  0  0  0
   -2.8487   -1.1696   -2.6644 C   0  0  0  0  0  0  0  0  0  0  0  0
   -2.9613   -0.6146   -4.3180 Cl  0  0  0  0  0  0  0  0  0  0  0  0
   -1.9097   -0.6327   -1.7680 C   0  0  0  0  0  0  0  0  0  0  0  0
    0.5183   -0.9362    0.1983 C   0  0  0  0  0  0  0  0  0  0  0  0
    1.5574   -0.0487    0.1790 C   0  0  0  0  0  0  0  0  0  0  0  0
    2.8544   -0.4908   -0.0584 C   0  0  0  0  0  0  0  0  0  0  0  0
    3.8850    0.3834   -0.0789 C   0  0  0  0  0  0  0  0  0  0  0  0
    5.1792   -0.1115   -0.3232 C   0  0  0  0  0  0  0  0  0  0  0  0
    5.3719   -1.4594   -0.5345 C   0  0  0  0  0  0  0  0  0  0  0  0
    4.3009   -2.3275   -0.5077 C   0  0  0  0  0  0  0  0  0  0  0  0
    3.0236   -1.8628   -0.2698 C   0  0  0  0  0  0  0  0  0  0  0  0
    1.9974   -2.6789   -0.2420 O   0  0  0  0  0  0  0  0  0  0  0  0
    0.7844   -2.2995   -0.0248 C   0  0  0  0  0  0  0  0  0  0  0  0
   -0.2014   -3.0985    0.0004 O   0  0  0  0  0  0  0  0  0  0  0  0
    1.3644    1.3540    0.4081 N   0  0  0  0  0  0  0  0  0  0  0  0
   -3.2902    3.3635    1.3588 H   0  0  0  0  0  0  0  0  0  0  0  0
   -2.8832    2.3349    2.7735 H   0  0  0  0  0  0  0  0  0  0  0  0
   -1.4579    4.4781    2.0509 H   0  0  0  0  0  0  0  0  0  0  0  0
   -0.7919    3.1376    2.9969 H   0  0  0  0  0  0  0  0  0  0  0  0
    0.7166    3.6750    1.2524 H   0  0  0  0  0  0  0  0  0  0  0  0
   -0.5775    3.7016   -0.0098 H   0  0  0  0  0  0  0  0  0  0  0  0
   -1.1018   -1.0017    1.4575 H   0  0  0  0  0  0  0  0  0  0  0  0
   -2.7046   -2.4745    0.9396 H   0  0  0  0  0  0  0  0  0  0  0  0
   -4.3050   -3.3878   -0.5957 H   0  0  0  0  0  0  0  0  0  0  0  0
   -4.4375   -2.5805   -2.9267 H   0  0  0  0  0  0  0  0  0  0  0  0
   -1.2742    0.1397   -2.1823 H   0  0  0  0  0  0  0  0  0  0  0  0
    3.7789    1.4293    0.0788 H   0  0  0  0  0  0  0  0  0  0  0  0
    5.9882    0.6031   -0.3354 H   0  0  0  0  0  0  0  0  0  0  0  0
    6.3572   -1.8413   -0.7212 H   0  0  0  0  0  0  0  0  0  0  0  0
    4.4088   -3.3880   -0.6679 H   0  0  0  0  0  0  0  0  0  0  0  0
    2.1190    2.0341    0.3988 H   0  0  0  0  0  0  0  0  0  0  0  0
  1  2  2  0
  2  3  1  0
  3  4  1  0
  4  5  1  0
  5  6  1  0
  6  7  2  0
  7  8  1  0
  8  9  1  0
  9 10  2  0
 10 11  1  0
 11 12  2  0
 12 13  1  0
 13 14  1  0
 13 15  2  0
  8 16  1  0
 16 17  2  0
 17 18  1  0
 18 19  2  0
 19 20  1  0
 20 21  2  0
 21 22  1  0
 22 23  2  0
 23 24  1  0
 24 25  1  0
 25 26  2  0
 17 27  1  0
  7  2  1  0
 15  9  1  0
 25 16  1  0
 27  6  1  0
 23 18  1  0
  3 28  1  0
  3 29  1  0
  4 30  1  0
  4 31  1  0
  5 32  1  0
  5 33  1  0
  8 34  1  0
 10 35  1  0
 11 36  1  0
 12 37  1  0
 15 38  1  0
 19 39  1  0
 20 40  1  0
 21 41  1  0
 22 42  1  0
 27 43  1  0
M  END
