
     RDKit          3D

 25 27  0  0  0  0  0  0  0  0999 V2000
   -6.1285    2.1078   -2.9324 N   0  0  0  0  0  0  0  0  0  0  0  0
   -5.1207    1.7324   -2.5078 C   0  0  0  0  0  0  0  0  0  0  0  0
   -3.8649    1.2833   -1.9621 C   0  0  0  0  0  0  0  0  0  0  0  0
   -3.2856    1.8941   -0.8686 C   0  0  0  0  0  0  0  0  0  0  0  0
   -2.0765    1.4608   -0.3442 C   0  0  0  0  0  0  0  0  0  0  0  0
   -1.4045    0.3943   -0.9025 C   0  0  0  0  0  0  0  0  0  0  0  0
   -0.1302   -0.0794   -0.3673 C   0  0  0  0  0  0  0  0  0  0  0  0
    0.9464   -1.3281   -0.7885 P   0  0  0  0  0  0  0  0  0  0  0  0
    2.2655   -1.2684    0.3315 C   0  0  0  0  0  0  0  0  0  0  0  0
    3.4103   -2.0640    0.4314 C   0  0  0  0  0  0  0  0  0  0  0  0
    4.3431   -1.8233    1.4276 C   0  0  0  0  0  0  0  0  0  0  0  0
    4.1775   -0.8076    2.3401 C   0  0  0  0  0  0  0  0  0  0  0  0
    3.0461   -0.0176    2.2451 C   0  0  0  0  0  0  0  0  0  0  0  0
    2.1256   -0.2650    1.2518 C   0  0  0  0  0  0  0  0  0  0  0  0
    0.6817    0.5872    0.9702 S   0  0  0  0  0  0  0  0  0  0  0  0
   -1.9805   -0.2181   -1.9950 C   0  0  0  0  0  0  0  0  0  0  0  0
   -3.1930    0.2159   -2.5215 C   0  0  0  0  0  0  0  0  0  0  0  0
   -3.8139    2.7304   -0.4320 H   0  0  0  0  0  0  0  0  0  0  0  0
   -1.6194    1.9507    0.5268 H   0  0  0  0  0  0  0  0  0  0  0  0
    3.6072   -2.8768   -0.2471 H   0  0  0  0  0  0  0  0  0  0  0  0
    5.2467   -2.4229    1.5357 H   0  0  0  0  0  0  0  0  0  0  0  0
    4.9221   -0.6245    3.1260 H   0  0  0  0  0  0  0  0  0  0  0  0
    2.9379    0.7639    2.9626 H   0  0  0  0  0  0  0  0  0  0  0  0
   -1.4572   -1.0511   -2.4323 H   0  0  0  0  0  0  0  0  0  0  0  0
   -3.6353   -0.2738   -3.3804 H   0  0  0  0  0  0  0  0  0  0  0  0
  1  2  3  0
  2  3  1  0
  3  4  2  0
  4  5  1  0
  5  6  2  0
  6  7  1  0
  7  8  2  0
  8  9  1  0
  9 10  2  0
 10 11  1  0
 11 12  2  0
 12 13  1  0
 13 14  2  0
 14 15  1  0
  6 16  1  0
 16 17  2  0
 17  3  1  0
 15  7  1  0
 14  9  1  0
  4 18  1  0
  5 19  1  0
 10 20  1  0
 11 21  1  0
 12 22  1  0
 13 23  1  0
 16 24  1  0
 17 25  1  0
M  END
