
     RDKit          3D

 34 39  0  0  0  0  0  0  0  0999 V2000
   -4.3297   -1.4140   -0.2324 C   0  0  0  0  0  0  0  0  0  0  0  0
   -4.2445   -0.0384   -0.0283 C   0  0  0  0  0  0  0  0  0  0  0  0
   -3.0000    0.5341    0.0631 C   0  0  0  0  0  0  0  0  0  0  0  0
   -2.8869    1.9029    0.2664 C   0  0  0  0  0  0  0  0  0  0  0  0
   -1.6361    2.4935    0.3605 C   0  0  0  0  0  0  0  0  0  0  0  0
   -0.4613    1.7755    0.2604 C   0  0  0  0  0  0  0  0  0  0  0  0
    0.7879    2.3737    0.3556 C   0  0  0  0  0  0  0  0  0  0  0  0
    1.9353    1.5904    0.2458 C   0  0  0  0  0  0  0  0  0  0  0  0
    3.1977    2.1371    0.3334 C   0  0  0  0  0  0  0  0  0  0  0  0
    4.3408    1.3584    0.2242 C   0  0  0  0  0  0  0  0  0  0  0  0
    4.2512   -0.0037    0.0221 C   0  0  0  0  0  0  0  0  0  0  0  0
    2.9851   -0.5459   -0.0649 C   0  0  0  0  0  0  0  0  0  0  0  0
    2.8787   -1.9180   -0.2687 C   0  0  0  0  0  0  0  0  0  0  0  0
    1.6147   -2.4647   -0.3563 C   0  0  0  0  0  0  0  0  0  0  0  0
    0.4644   -1.7151   -0.2515 C   0  0  0  0  0  0  0  0  0  0  0  0
   -0.7941   -2.3140   -0.3468 C   0  0  0  0  0  0  0  0  0  0  0  0
   -1.9404   -1.5483   -0.2396 C   0  0  0  0  0  0  0  0  0  0  0  0
   -3.1778   -2.1620   -0.3370 C   0  0  0  0  0  0  0  0  0  0  0  0
   -1.8265   -0.1868   -0.0374 C   0  0  0  0  0  0  0  0  0  0  0  0
   -0.5765    0.4108    0.0577 C   0  0  0  0  0  0  0  0  0  0  0  0
    0.5824   -0.3473   -0.0483 C   0  0  0  0  0  0  0  0  0  0  0  0
    1.8434    0.2265    0.0433 C   0  0  0  0  0  0  0  0  0  0  0  0
   -5.2814   -1.9029   -0.3098 H   0  0  0  0  0  0  0  0  0  0  0  0
   -5.1594    0.5257    0.0504 H   0  0  0  0  0  0  0  0  0  0  0  0
   -3.7814    2.5004    0.3501 H   0  0  0  0  0  0  0  0  0  0  0  0
   -1.5565    3.5600    0.5188 H   0  0  0  0  0  0  0  0  0  0  0  0
    0.8635    3.4301    0.5124 H   0  0  0  0  0  0  0  0  0  0  0  0
    3.2622    3.2125    0.4930 H   0  0  0  0  0  0  0  0  0  0  0  0
    5.3295    1.7977    0.2945 H   0  0  0  0  0  0  0  0  0  0  0  0
    5.1451   -0.6387   -0.0672 H   0  0  0  0  0  0  0  0  0  0  0  0
    3.7811   -2.5095   -0.3514 H   0  0  0  0  0  0  0  0  0  0  0  0
    1.5102   -3.5236   -0.5137 H   0  0  0  0  0  0  0  0  0  0  0  0
   -0.8281   -3.3720   -0.5037 H   0  0  0  0  0  0  0  0  0  0  0  0
   -3.2926   -3.2246   -0.4949 H   0  0  0  0  0  0  0  0  0  0  0  0
  1  2  2  0
  2  3  1  0
  3  4  2  0
  4  5  1  0
  5  6  2  0
  6  7  1  0
  7  8  2  0
  8  9  1  0
  9 10  2  0
 10 11  1  0
 11 12  2  0
 12 13  1  0
 13 14  2  0
 14 15  1  0
 15 16  2  0
 16 17  1  0
 17 18  2  0
 17 19  1  0
 19 20  2  0
 20 21  1  0
 21 22  2  0
 18  1  1  0
 19  3  1  0
 20  6  1  0
 22  8  1  0
 22 12  1  0
 21 15  1  0
  1 23  1  0
  2 24  1  0
  4 25  1  0
  5 26  1  0
  7 27  1  0
  9 28  1  0
 10 29  1  0
 11 30  1  0
 13 31  1  0
 14 32  1  0
 16 33  1  0
 18 34  1  0
M  END
