
     RDKit          3D

 53 59  0  0  0  0  0  0  0  0999 V2000
    5.4760    0.4621    3.0940 C   0  0  0  0  0  0  0  0  0  0  0  0
    6.7112    0.3649    2.4842 C   0  0  0  0  0  0  0  0  0  0  0  0
    6.8041    0.1666    1.1215 C   0  0  0  0  0  0  0  0  0  0  0  0
    5.6807    0.0569    0.3107 C   0  0  0  0  0  0  0  0  0  0  0  0
    5.7594   -0.1364   -1.0164 N   0  0  0  0  0  0  0  0  0  0  0  0
    4.6852   -0.2433   -1.8066 C   0  0  0  0  0  0  0  0  0  0  0  0
    4.7927   -0.4535   -3.1748 C   0  0  0  0  0  0  0  0  0  0  0  0
    3.6761   -0.5704   -3.9682 C   0  0  0  0  0  0  0  0  0  0  0  0
    2.4228   -0.4788   -3.4089 C   0  0  0  0  0  0  0  0  0  0  0  0
    2.2827   -0.2665   -2.0322 C   0  0  0  0  0  0  0  0  0  0  0  0
    0.9595   -0.1359   -1.4701 C   0  0  0  0  0  0  0  0  0  0  0  0
    0.5174    0.9360   -0.7328 C   0  0  0  0  0  0  0  0  0  0  0  0
   -0.7617    1.0036   -0.2050 C   0  0  0  0  0  0  0  0  0  0  0  0
   -1.6560   -0.0263   -0.4065 C   0  0  0  0  0  0  0  0  0  0  0  0
   -2.9720    0.0327    0.1310 N   0  0  0  0  0  0  0  0  0  0  0  0
   -3.3950   -0.6754    1.1897 C   0  0  0  0  0  0  0  0  0  0  0  0
   -2.7114   -1.5797    1.9751 C   0  0  0  0  0  0  0  0  0  0  0  0
   -3.3807   -2.1896    3.0282 C   0  0  0  0  0  0  0  0  0  0  0  0
   -4.6963   -1.8846    3.2657 C   0  0  0  0  0  0  0  0  0  0  0  0
   -5.3942   -0.9821    2.4891 C   0  0  0  0  0  0  0  0  0  0  0  0
   -4.7368   -0.3717    1.4408 C   0  0  0  0  0  0  0  0  0  0  0  0
   -5.1157    0.5443    0.5001 C   0  0  0  0  0  0  0  0  0  0  0  0
   -6.3083    1.2060    0.2461 C   0  0  0  0  0  0  0  0  0  0  0  0
   -6.4192    2.1035   -0.7963 C   0  0  0  0  0  0  0  0  0  0  0  0
   -5.3094    2.3417   -1.6004 C   0  0  0  0  0  0  0  0  0  0  0  0
   -4.1110    1.6713   -1.3384 C   0  0  0  0  0  0  0  0  0  0  0  0
   -4.0038    0.7755   -0.2965 C   0  0  0  0  0  0  0  0  0  0  0  0
   -1.2227   -1.1199   -1.1525 C   0  0  0  0  0  0  0  0  0  0  0  0
    0.0460   -1.1674   -1.6654 C   0  0  0  0  0  0  0  0  0  0  0  0
    3.4015   -0.1519   -1.2453 C   0  0  0  0  0  0  0  0  0  0  0  0
    3.3291    0.0437    0.1040 C   0  0  0  0  0  0  0  0  0  0  0  0
    4.4532    0.1555    0.9308 C   0  0  0  0  0  0  0  0  0  0  0  0
    4.3486    0.3534    2.2895 C   0  0  0  0  0  0  0  0  0  0  0  0
    5.4206    0.6176    4.1631 H   0  0  0  0  0  0  0  0  0  0  0  0
    7.6407    0.4423    3.0627 H   0  0  0  0  0  0  0  0  0  0  0  0
    7.7611    0.0855    0.6091 H   0  0  0  0  0  0  0  0  0  0  0  0
    5.8035   -0.5206   -3.5844 H   0  0  0  0  0  0  0  0  0  0  0  0
    3.7921   -0.7332   -5.0236 H   0  0  0  0  0  0  0  0  0  0  0  0
    1.5088   -0.5656   -4.0008 H   0  0  0  0  0  0  0  0  0  0  0  0
    1.1718    1.7655   -0.5577 H   0  0  0  0  0  0  0  0  0  0  0  0
   -1.0994    1.8560    0.3764 H   0  0  0  0  0  0  0  0  0  0  0  0
   -1.6825   -1.8460    1.8232 H   0  0  0  0  0  0  0  0  0  0  0  0
   -2.8677   -2.9092    3.6676 H   0  0  0  0  0  0  0  0  0  0  0  0
   -5.2587   -2.3401    4.0812 H   0  0  0  0  0  0  0  0  0  0  0  0
   -6.4273   -0.7241    2.6530 H   0  0  0  0  0  0  0  0  0  0  0  0
   -7.1472    0.9909    0.8966 H   0  0  0  0  0  0  0  0  0  0  0  0
   -7.3391    2.6262   -1.0073 H   0  0  0  0  0  0  0  0  0  0  0  0
   -5.3534    3.0404   -2.4315 H   0  0  0  0  0  0  0  0  0  0  0  0
   -3.2423    1.8387   -1.9446 H   0  0  0  0  0  0  0  0  0  0  0  0
   -1.9553   -1.9131   -1.2911 H   0  0  0  0  0  0  0  0  0  0  0  0
    0.3706   -2.0287   -2.2465 H   0  0  0  0  0  0  0  0  0  0  0  0
    2.3742    0.1060    0.5784 H   0  0  0  0  0  0  0  0  0  0  0  0
    3.3773    0.4271    2.7501 H   0  0  0  0  0  0  0  0  0  0  0  0
  1  2  2  0
  2  3  1  0
  3  4  2  0
  4  5  1  0
  5  6  2  0
  6  7  1  0
  7  8  2  0
  8  9  1  0
  9 10  2  0
 10 11  1  0
 11 12  2  0
 12 13  1  0
 13 14  2  0
 14 15  1  0
 15 16  1  0
 16 17  2  0
 17 18  1  0
 18 19  2  0
 19 20  1  0
 20 21  2  0
 21 22  1  0
 22 23  2  0
 23 24  1  0
 24 25  2  0
 25 26  1  0
 26 27  2  0
 14 28  1  0
 28 29  2  0
 10 30  1  0
 30 31  2  0
 31 32  1  0
 32 33  2  0
 33  1  1  0
 32  4  1  0
 30  6  1  0
 29 11  1  0
 27 15  1  0
 21 16  1  0
 27 22  1  0
  1 34  1  0
  2 35  1  0
  3 36  1  0
  7 37  1  0
  8 38  1  0
  9 39  1  0
 12 40  1  0
 13 41  1  0
 17 42  1  0
 18 43  1  0
 19 44  1  0
 20 45  1  0
 23 46  1  0
 24 47  1  0
 25 48  1  0
 26 49  1  0
 28 50  1  0
 29 51  1  0
 31 52  1  0
 33 53  1  0
M  END
