
     RDKit          3D

 53 56  0  0  0  0  0  0  0  0999 V2000
    5.0359   -3.8526    4.0152 C   0  0  0  0  0  0  0  0  0  0  0  0
    4.3420   -2.8901    3.1176 C   0  0  0  0  0  0  0  0  0  0  0  0
    5.0291   -1.8142    2.6268 C   0  0  0  0  0  0  0  0  0  0  0  0
    4.4219   -0.9179    1.8050 C   0  0  0  0  0  0  0  0  0  0  0  0
    3.0821   -1.0150    1.4019 C   0  0  0  0  0  0  0  0  0  0  0  0
    2.5240   -0.0072    0.5236 C   0  0  0  0  0  0  0  0  0  0  0  0
    1.2638   -0.0780    0.1279 C   0  0  0  0  0  0  0  0  0  0  0  0
    0.6876    0.9256   -0.7534 C   0  0  0  0  0  0  0  0  0  0  0  0
    1.4670    1.9318   -1.2988 N   0  0  0  0  0  0  0  0  0  0  0  0
    0.6774    2.6613   -2.0848 C   0  0  0  0  0  0  0  0  0  0  0  0
    1.0819    3.8330   -2.8657 C   0  0  0  0  0  0  0  0  0  0  0  0
    2.3766    4.2791   -2.8377 C   0  0  0  0  0  0  0  0  0  0  0  0
    2.7470    5.3911   -3.5819 C   0  0  0  0  0  0  0  0  0  0  0  0
    1.8211    6.0611   -4.3577 C   0  0  0  0  0  0  0  0  0  0  0  0
    0.5172    5.6221   -4.3938 C   0  0  0  0  0  0  0  0  0  0  0  0
    0.1634    4.5185   -3.6513 C   0  0  0  0  0  0  0  0  0  0  0  0
   -0.5533    2.1436   -2.0418 N   0  0  0  0  0  0  0  0  0  0  0  0
   -0.5787    1.0354   -1.1979 C   0  0  0  0  0  0  0  0  0  0  0  0
   -1.7819    0.3177   -0.8687 C   0  0  0  0  0  0  0  0  0  0  0  0
   -2.0179   -0.4814    0.1099 C   0  0  0  0  0  0  0  0  0  0  0  0
   -3.3188   -1.1334    0.2830 C   0  0  0  0  0  0  0  0  0  0  0  0
   -3.5002   -1.9958    1.3777 C   0  0  0  0  0  0  0  0  0  0  0  0
   -4.6814   -2.6476    1.6172 C   0  0  0  0  0  0  0  0  0  0  0  0
   -5.7531   -2.4820    0.7841 C   0  0  0  0  0  0  0  0  0  0  0  0
   -7.0585   -3.1635    0.9949 C   0  0  0  0  0  0  0  0  0  0  0  0
   -5.5927   -1.6414   -0.2921 C   0  0  0  0  0  0  0  0  0  0  0  0
   -4.3870   -0.9680   -0.5478 C   0  0  0  0  0  0  0  0  0  0  0  0
    2.4102   -2.1000    1.9042 C   0  0  0  0  0  0  0  0  0  0  0  0
    3.0268   -3.0309    2.7528 C   0  0  0  0  0  0  0  0  0  0  0  0
    5.4613   -4.7112    3.4908 H   0  0  0  0  0  0  0  0  0  0  0  0
    5.8407   -3.3774    4.6075 H   0  0  0  0  0  0  0  0  0  0  0  0
    4.2781   -4.2544    4.7338 H   0  0  0  0  0  0  0  0  0  0  0  0
    6.0734   -1.6638    2.8903 H   0  0  0  0  0  0  0  0  0  0  0  0
    4.9496   -0.0439    1.3956 H   0  0  0  0  0  0  0  0  0  0  0  0
    3.1129    0.8261    0.1673 H   0  0  0  0  0  0  0  0  0  0  0  0
    0.7131   -0.9241    0.4590 H   0  0  0  0  0  0  0  0  0  0  0  0
    3.1204    3.7847   -2.2480 H   0  0  0  0  0  0  0  0  0  0  0  0
    3.7960    5.7059   -3.5236 H   0  0  0  0  0  0  0  0  0  0  0  0
    2.1561    6.9114   -4.9120 H   0  0  0  0  0  0  0  0  0  0  0  0
   -0.1835    6.1654   -5.0086 H   0  0  0  0  0  0  0  0  0  0  0  0
   -0.8592    4.1604   -3.6689 H   0  0  0  0  0  0  0  0  0  0  0  0
   -1.3995    2.4872   -2.5484 H   0  0  0  0  0  0  0  0  0  0  0  0
   -2.6224    0.4738   -1.5730 H   0  0  0  0  0  0  0  0  0  0  0  0
   -1.2638   -0.6581    0.8527 H   0  0  0  0  0  0  0  0  0  0  0  0
   -2.6673   -2.1605    2.0756 H   0  0  0  0  0  0  0  0  0  0  0  0
   -4.8162   -3.3148    2.4669 H   0  0  0  0  0  0  0  0  0  0  0  0
   -7.8833   -2.6059    0.5023 H   0  0  0  0  0  0  0  0  0  0  0  0
   -7.2815   -3.1846    2.0806 H   0  0  0  0  0  0  0  0  0  0  0  0
   -7.0486   -4.1980    0.6042 H   0  0  0  0  0  0  0  0  0  0  0  0
   -6.3908   -1.4632   -0.9889 H   0  0  0  0  0  0  0  0  0  0  0  0
   -4.3402   -0.3327   -1.4027 H   0  0  0  0  0  0  0  0  0  0  0  0
    1.3569   -2.2595    1.6445 H   0  0  0  0  0  0  0  0  0  0  0  0
    2.4465   -3.8643    3.1162 H   0  0  0  0  0  0  0  0  0  0  0  0
  1  2  1  0
  2  3  2  0
  3  4  1  0
  4  5  2  0
  5  6  1  0
  6  7  2  0
  7  8  1  0
  8  9  1  0
  9 10  2  0
 10 11  1  0
 11 12  2  0
 12 13  1  0
 13 14  2  0
 14 15  1  0
 15 16  2  0
 10 17  1  0
 17 18  1  0
 18 19  1  0
 19 20  2  0
 20 21  1  0
 21 22  2  0
 22 23  1  0
 23 24  2  0
 24 25  1  0
 24 26  1  0
 26 27  2  0
  5 28  1  0
 28 29  2  0
 29  2  1  0
 18  8  2  0
 27 21  1  0
 16 11  1  0
  1 30  1  0
  1 31  1  0
  1 32  1  0
  3 33  1  0
  4 34  1  0
  6 35  1  0
  7 36  1  0
 12 37  1  0
 13 38  1  0
 14 39  1  0
 15 40  1  0
 16 41  1  0
 17 42  1  0
 19 43  1  0
 20 44  1  0
 22 45  1  0
 23 46  1  0
 25 47  1  0
 25 48  1  0
 25 49  1  0
 26 50  1  0
 27 51  1  0
 28 52  1  0
 29 53  1  0
M  END
