
     RDKit          3D

 50 53  0  0  0  0  0  0  0  0999 V2000
    6.9701    2.2596   -1.6061 C   0  0  0  0  0  0  0  0  0  0  0  0
    5.5387    1.8611   -1.3200 C   0  0  0  0  0  0  0  0  0  0  0  0
    5.5746    1.0674   -0.1391 O   0  0  0  0  0  0  0  0  0  0  0  0
    4.4132    0.5288    0.4129 C   0  0  0  0  0  0  0  0  0  0  0  0
    3.3562    0.7712   -0.1678 O   0  0  0  0  0  0  0  0  0  0  0  0
    4.4882   -0.2708    1.6108 C   0  0  0  0  0  0  0  0  0  0  0  0
    5.8001   -0.5351    2.2215 C   0  0  0  0  0  0  0  0  0  0  0  0
    6.8407   -0.7342    2.7213 N   0  0  0  0  0  0  0  0  0  0  0  0
    3.4639   -0.7861    2.2019 C   0  0  0  0  0  0  0  0  0  0  0  0
    2.0982   -0.6195    1.7409 C   0  0  0  0  0  0  0  0  0  0  0  0
    1.4282    0.5740    1.6196 C   0  0  0  0  0  0  0  0  0  0  0  0
    0.1261    0.6418    1.1404 C   0  0  0  0  0  0  0  0  0  0  0  0
   -0.5260   -0.5231    0.7721 C   0  0  0  0  0  0  0  0  0  0  0  0
    0.1056   -1.7388    0.8778 C   0  0  0  0  0  0  0  0  0  0  0  0
    1.4121   -1.7783    1.3611 C   0  0  0  0  0  0  0  0  0  0  0  0
   -0.7772   -2.7048    0.4450 C   0  0  0  0  0  0  0  0  0  0  0  0
   -0.6853   -4.0735    0.3331 C   0  0  0  0  0  0  0  0  0  0  0  0
   -1.7469   -4.8384   -0.1448 C   0  0  0  0  0  0  0  0  0  0  0  0
   -2.9293   -4.1893   -0.5168 C   0  0  0  0  0  0  0  0  0  0  0  0
   -3.0330   -2.8238   -0.4096 C   0  0  0  0  0  0  0  0  0  0  0  0
   -1.9497   -2.0964    0.0724 C   0  0  0  0  0  0  0  0  0  0  0  0
   -1.7639   -0.7733    0.2833 N   0  0  0  0  0  0  0  0  0  0  0  0
   -2.7368    0.2269    0.0273 C   0  0  0  0  0  0  0  0  0  0  0  0
   -3.3477    0.2903   -1.2048 C   0  0  0  0  0  0  0  0  0  0  0  0
   -4.3124    1.2732   -1.4736 C   0  0  0  0  0  0  0  0  0  0  0  0
   -4.6630    2.1895   -0.5089 C   0  0  0  0  0  0  0  0  0  0  0  0
   -5.6233    3.1845   -0.7447 O   0  0  0  0  0  0  0  0  0  0  0  0
   -6.2417    3.2277   -2.0313 C   0  0  0  0  0  0  0  0  0  0  0  0
   -4.0513    2.1226    0.7185 C   0  0  0  0  0  0  0  0  0  0  0  0
   -3.0861    1.1417    0.9919 C   0  0  0  0  0  0  0  0  0  0  0  0
    7.2841    3.1307   -0.9924 H   0  0  0  0  0  0  0  0  0  0  0  0
    7.1204    2.5319   -2.6748 H   0  0  0  0  0  0  0  0  0  0  0  0
    7.6583    1.4086   -1.3410 H   0  0  0  0  0  0  0  0  0  0  0  0
    4.9554    2.7947   -1.1651 H   0  0  0  0  0  0  0  0  0  0  0  0
    5.0867    1.3349   -2.1764 H   0  0  0  0  0  0  0  0  0  0  0  0
    3.6489   -1.3961    3.1236 H   0  0  0  0  0  0  0  0  0  0  0  0
    1.9398    1.4994    1.9336 H   0  0  0  0  0  0  0  0  0  0  0  0
   -0.3912    1.5738    1.0470 H   0  0  0  0  0  0  0  0  0  0  0  0
    1.8555   -2.7590    1.4217 H   0  0  0  0  0  0  0  0  0  0  0  0
    0.2213   -4.5909    0.6162 H   0  0  0  0  0  0  0  0  0  0  0  0
   -1.6698   -5.8994   -0.2292 H   0  0  0  0  0  0  0  0  0  0  0  0
   -3.7547   -4.7901   -0.8891 H   0  0  0  0  0  0  0  0  0  0  0  0
   -3.9377   -2.3198   -0.6934 H   0  0  0  0  0  0  0  0  0  0  0  0
   -3.1218   -0.3977   -2.0120 H   0  0  0  0  0  0  0  0  0  0  0  0
   -4.8061    1.3440   -2.4324 H   0  0  0  0  0  0  0  0  0  0  0  0
   -5.5329    3.5832   -2.8152 H   0  0  0  0  0  0  0  0  0  0  0  0
   -7.1038    3.9150   -2.0138 H   0  0  0  0  0  0  0  0  0  0  0  0
   -6.6483    2.2126   -2.2875 H   0  0  0  0  0  0  0  0  0  0  0  0
   -4.3319    2.8541    1.4872 H   0  0  0  0  0  0  0  0  0  0  0  0
   -2.6148    1.0953    1.9472 H   0  0  0  0  0  0  0  0  0  0  0  0
  1  2  1  0
  2  3  1  0
  3  4  1  0
  4  5  2  0
  4  6  1  0
  6  7  1  0
  7  8  3  0
  6  9  2  0
  9 10  1  0
 10 11  2  0
 11 12  1  0
 12 13  2  0
 13 14  1  0
 14 15  2  0
 14 16  1  0
 16 17  2  0
 17 18  1  0
 18 19  2  0
 19 20  1  0
 20 21  2  0
 21 22  1  0
 22 23  1  0
 23 24  2  0
 24 25  1  0
 25 26  2  0
 26 27  1  0
 27 28  1  0
 26 29  1  0
 29 30  2  0
 15 10  1  0
 21 16  1  0
 30 23  1  0
 22 13  1  0
  1 31  1  0
  1 32  1  0
  1 33  1  0
  2 34  1  0
  2 35  1  0
  9 36  1  0
 11 37  1  0
 12 38  1  0
 15 39  1  0
 17 40  1  0
 18 41  1  0
 19 42  1  0
 20 43  1  0
 24 44  1  0
 25 45  1  0
 28 46  1  0
 28 47  1  0
 28 48  1  0
 29 49  1  0
 30 50  1  0
M  END
