
     RDKit          3D

 56 61  0  0  0  0  0  0  0  0999 V2000
   -6.0485   -0.0356   -0.2408 C   0  0  0  0  0  0  0  0  0  0  0  0
   -4.8573   -0.4143    0.6395 C   0  0  0  0  0  0  0  0  0  0  0  0
   -5.3835   -1.0622    1.9333 C   0  0  0  0  0  0  0  0  0  0  0  0
   -4.0532   -1.4442   -0.0283 C   0  0  0  0  0  0  0  0  0  0  0  0
   -4.7013   -2.6432   -0.4260 C   0  0  0  0  0  0  0  0  0  0  0  0
   -4.0020   -3.6326   -1.0501 C   0  0  0  0  0  0  0  0  0  0  0  0
   -2.6519   -3.4860   -1.3062 C   0  0  0  0  0  0  0  0  0  0  0  0
   -2.0446   -2.3147   -0.9116 C   0  0  0  0  0  0  0  0  0  0  0  0
   -2.7211   -1.2786   -0.2714 C   0  0  0  0  0  0  0  0  0  0  0  0
   -2.0509   -0.0904    0.1160 N   0  0  0  0  0  0  0  0  0  0  0  0
   -0.6618    0.0837   -0.1368 C   0  0  0  0  0  0  0  0  0  0  0  0
   -0.2616    0.6552   -1.3167 C   0  0  0  0  0  0  0  0  0  0  0  0
   -1.1706    1.0488   -2.2291 F   0  0  0  0  0  0  0  0  0  0  0  0
    1.0881    0.8542   -1.6256 C   0  0  0  0  0  0  0  0  0  0  0  0
    2.0431    0.4665   -0.7217 C   0  0  0  0  0  0  0  0  0  0  0  0
    3.4436    0.6657   -1.0267 C   0  0  0  0  0  0  0  0  0  0  0  0
    3.9559    1.2217   -2.1643 N   0  0  0  0  0  0  0  0  0  0  0  0
    5.2729    1.2404   -2.0930 N   0  0  0  0  0  0  0  0  0  0  0  0
    5.6177    0.6992   -0.9148 C   0  0  0  0  0  0  0  0  0  0  0  0
    6.9904    0.5078   -0.3927 C   0  0  0  0  0  0  0  0  0  0  0  0
    7.1469   -0.0708    0.8490 C   0  0  0  0  0  0  0  0  0  0  0  0
    8.3986   -0.2799    1.3983 C   0  0  0  0  0  0  0  0  0  0  0  0
    9.4923    0.1095    0.6636 C   0  0  0  0  0  0  0  0  0  0  0  0
    9.3207    0.6943   -0.5926 C   0  0  0  0  0  0  0  0  0  0  0  0
    8.0672    0.8988   -1.1323 C   0  0  0  0  0  0  0  0  0  0  0  0
    4.5037    0.3720   -0.3138 O   0  0  0  0  0  0  0  0  0  0  0  0
    1.6497   -0.1054    0.4596 C   0  0  0  0  0  0  0  0  0  0  0  0
    0.3106   -0.3024    0.7651 C   0  0  0  0  0  0  0  0  0  0  0  0
   -0.0988   -0.8657    1.9269 F   0  0  0  0  0  0  0  0  0  0  0  0
   -2.7744    0.9496    0.7693 C   0  0  0  0  0  0  0  0  0  0  0  0
   -2.1632    2.1210    1.1632 C   0  0  0  0  0  0  0  0  0  0  0  0
   -2.8142    3.1530    1.7954 C   0  0  0  0  0  0  0  0  0  0  0  0
   -4.1570    2.9903    2.0425 C   0  0  0  0  0  0  0  0  0  0  0  0
   -4.7873    1.8420    1.6638 C   0  0  0  0  0  0  0  0  0  0  0  0
   -4.1072    0.7842    1.0126 C   0  0  0  0  0  0  0  0  0  0  0  0
   -6.8329   -0.7913   -0.0641 H   0  0  0  0  0  0  0  0  0  0  0  0
   -6.3387    0.9894    0.0125 H   0  0  0  0  0  0  0  0  0  0  0  0
   -5.6722   -0.0837   -1.2853 H   0  0  0  0  0  0  0  0  0  0  0  0
   -5.4175   -2.1547    1.8279 H   0  0  0  0  0  0  0  0  0  0  0  0
   -6.4206   -0.7108    2.1334 H   0  0  0  0  0  0  0  0  0  0  0  0
   -4.7660   -0.7654    2.8039 H   0  0  0  0  0  0  0  0  0  0  0  0
   -5.7743   -2.7375   -0.2122 H   0  0  0  0  0  0  0  0  0  0  0  0
   -4.5442   -4.5348   -1.3362 H   0  0  0  0  0  0  0  0  0  0  0  0
   -2.1080   -4.2750   -1.8006 H   0  0  0  0  0  0  0  0  0  0  0  0
   -0.9831   -2.1393   -1.0852 H   0  0  0  0  0  0  0  0  0  0  0  0
    1.3252    1.3136   -2.5812 H   0  0  0  0  0  0  0  0  0  0  0  0
    6.2667   -0.3662    1.4021 H   0  0  0  0  0  0  0  0  0  0  0  0
    8.4421   -0.7346    2.3675 H   0  0  0  0  0  0  0  0  0  0  0  0
   10.4694   -0.0488    1.0822 H   0  0  0  0  0  0  0  0  0  0  0  0
   10.2178    0.9760   -1.1151 H   0  0  0  0  0  0  0  0  0  0  0  0
    7.9323    1.3483   -2.0982 H   0  0  0  0  0  0  0  0  0  0  0  0
    2.3687   -0.4233    1.1953 H   0  0  0  0  0  0  0  0  0  0  0  0
   -1.1131    2.2283    0.9609 H   0  0  0  0  0  0  0  0  0  0  0  0
   -2.3070    4.0562    2.0906 H   0  0  0  0  0  0  0  0  0  0  0  0
   -4.6931    3.8116    2.5500 H   0  0  0  0  0  0  0  0  0  0  0  0
   -5.8428    1.7103    1.8562 H   0  0  0  0  0  0  0  0  0  0  0  0
  1  2  1  0
  2  3  1  0
  2  4  1  0
  4  5  2  0
  5  6  1  0
  6  7  2  0
  7  8  1  0
  8  9  2  0
  9 10  1  0
 10 11  1  0
 11 12  2  0
 12 13  1  0
 12 14  1  0
 14 15  2  0
 15 16  1  0
 16 17  2  0
 17 18  1  0
 18 19  2  0
 19 20  1  0
 20 21  2  0
 21 22  1  0
 22 23  2  0
 23 24  1  0
 24 25  2  0
 19 26  1  0
 15 27  1  0
 27 28  2  0
 28 29  1  0
 10 30  1  0
 30 31  2  0
 31 32  1  0
 32 33  2  0
 33 34  1  0
 34 35  2  0
 35  2  1  0
  9  4  1  0
 28 11  1  0
 35 30  1  0
 26 16  1  0
 25 20  1  0
  1 36  1  0
  1 37  1  0
  1 38  1  0
  3 39  1  0
  3 40  1  0
  3 41  1  0
  5 42  1  0
  6 43  1  0
  7 44  1  0
  8 45  1  0
 14 46  1  0
 21 47  1  0
 22 48  1  0
 23 49  1  0
 24 50  1  0
 25 51  1  0
 27 52  1  0
 31 53  1  0
 32 54  1  0
 33 55  1  0
 34 56  1  0
M  END
