
     RDKit          3D

 65 71  0  0  0  0  0  0  0  0999 V2000
    0.9769   -2.1480   -0.8583 C   0  0  0  0  0  0  0  0  0  0  0  0
    1.4011   -0.7997   -0.3248 C   0  0  0  0  0  0  0  0  0  0  0  0
    2.6354   -0.4214   -0.0374 C   0  0  0  0  0  0  0  0  0  0  0  0
    3.8250   -1.2416   -0.1851 C   0  0  0  0  0  0  0  0  0  0  0  0
    4.7593   -1.2177    0.8253 C   0  0  0  0  0  0  0  0  0  0  0  0
    5.8912   -1.9887    0.6660 C   0  0  0  0  0  0  0  0  0  0  0  0
    6.1345   -2.7733   -0.4381 C   0  0  0  0  0  0  0  0  0  0  0  0
    5.1597   -2.7529   -1.4144 C   0  0  0  0  0  0  0  0  0  0  0  0
    4.0035   -2.0032   -1.3173 C   0  0  0  0  0  0  0  0  0  0  0  0
    2.6547    0.9471    0.4535 C   0  0  0  0  0  0  0  0  0  0  0  0
    3.8326    1.7538    0.8839 C   0  0  0  0  0  0  0  0  0  0  0  0
    1.4357    1.3546    0.4486 N   0  0  0  0  0  4  0  0  0  0  0  0
    0.5477    0.3443   -0.0213 C   0  0  0  0  0  0  0  0  0  0  0  0
   -0.7387    0.5083   -0.1382 C   0  0  0  0  0  0  0  0  0  0  0  0
   -1.5903   -0.5505   -0.6488 C   0  0  0  0  0  0  0  0  0  0  0  0
   -2.4931   -1.3625   -0.0558 C   0  0  0  0  0  0  0  0  0  0  0  0
   -2.8095   -1.4835    1.3374 C   0  0  0  0  0  0  0  0  0  0  0  0
   -2.1780   -0.7981    2.3276 C   0  0  0  0  0  0  0  0  0  0  0  0
   -2.5193   -1.0020    3.6801 C   0  0  0  0  0  0  0  0  0  0  0  0
   -3.4968   -1.8983    4.0306 C   0  0  0  0  0  0  0  0  0  0  0  0
   -4.1190   -2.5804    2.9952 C   0  0  0  0  0  0  0  0  0  0  0  0
   -3.7705   -2.3618    1.7230 N   0  0  0  0  0  0  0  0  0  0  0  0
   -3.0771   -2.0824   -1.0722 N   0  0  0  0  0  0  0  0  0  0  0  0
   -2.5331   -1.7084   -2.2242 C   0  0  0  0  0  0  0  0  0  0  0  0
   -2.7997   -2.1511   -3.5044 C   0  0  0  0  0  0  0  0  0  0  0  0
   -2.1230   -1.6327   -4.5840 C   0  0  0  0  0  0  0  0  0  0  0  0
   -1.1740   -0.6609   -4.3506 C   0  0  0  0  0  0  0  0  0  0  0  0
   -0.9543   -0.2621   -3.0526 C   0  0  0  0  0  0  0  0  0  0  0  0
   -1.6176   -0.7723   -2.0053 N   0  0  0  0  0  0  0  0  0  0  0  0
   -1.3504    1.7960    0.2132 C   0  0  0  0  0  0  0  0  0  0  0  0
   -2.6615    2.2039    0.1551 C   0  0  0  0  0  0  0  0  0  0  0  0
   -3.8556    1.4804   -0.2704 C   0  0  0  0  0  0  0  0  0  0  0  0
   -2.6488    3.5307    0.5967 C   0  0  0  0  0  0  0  0  0  0  0  0
   -1.3819    3.9050    0.9070 C   0  0  0  0  0  0  0  0  0  0  0  0
   -0.9484    5.2498    1.4170 C   0  0  0  0  0  0  0  0  0  0  0  0
   -0.5991    2.8335    0.6674 N   0  0  0  0  0  0  0  0  0  0  0  0
    0.8868    2.7092    0.8526 B   0  0  0  0  0  4  0  0  0  0  0  0
    1.2199    2.8776    2.2791 F   0  0  0  0  0  0  0  0  0  0  0  0
    1.5925    3.7859    0.1600 F   0  0  0  0  0  0  0  0  0  0  0  0
    1.7511   -2.9183   -0.5403 H   0  0  0  0  0  0  0  0  0  0  0  0
    0.0731   -2.5217   -0.3373 H   0  0  0  0  0  0  0  0  0  0  0  0
    0.8850   -2.1620   -1.9383 H   0  0  0  0  0  0  0  0  0  0  0  0
    4.6110   -0.6064    1.7329 H   0  0  0  0  0  0  0  0  0  0  0  0
    6.6308   -1.9753    1.4580 H   0  0  0  0  0  0  0  0  0  0  0  0
    7.0488   -3.3756   -0.5304 H   0  0  0  0  0  0  0  0  0  0  0  0
    5.3023   -3.3581   -2.3129 H   0  0  0  0  0  0  0  0  0  0  0  0
    3.2613   -2.0224   -2.1347 H   0  0  0  0  0  0  0  0  0  0  0  0
    3.9226    1.8042    1.9874 H   0  0  0  0  0  0  0  0  0  0  0  0
    4.7701    1.4155    0.4734 H   0  0  0  0  0  0  0  0  0  0  0  0
    3.6198    2.8066    0.5597 H   0  0  0  0  0  0  0  0  0  0  0  0
   -1.3919   -0.1016    2.1275 H   0  0  0  0  0  0  0  0  0  0  0  0
   -1.9746   -0.4201    4.4219 H   0  0  0  0  0  0  0  0  0  0  0  0
   -3.7380   -2.0351    5.0737 H   0  0  0  0  0  0  0  0  0  0  0  0
   -4.8854   -3.2835    3.2723 H   0  0  0  0  0  0  0  0  0  0  0  0
   -3.5473   -2.9160   -3.6896 H   0  0  0  0  0  0  0  0  0  0  0  0
   -2.3273   -1.9736   -5.5875 H   0  0  0  0  0  0  0  0  0  0  0  0
   -0.6472   -0.2584   -5.1964 H   0  0  0  0  0  0  0  0  0  0  0  0
   -0.2048    0.5008   -2.8993 H   0  0  0  0  0  0  0  0  0  0  0  0
   -4.6587    2.2451   -0.5094 H   0  0  0  0  0  0  0  0  0  0  0  0
   -4.3139    0.8212    0.4586 H   0  0  0  0  0  0  0  0  0  0  0  0
   -3.7246    0.9447   -1.2378 H   0  0  0  0  0  0  0  0  0  0  0  0
   -3.5502    4.1473    0.6681 H   0  0  0  0  0  0  0  0  0  0  0  0
   -0.4747    5.8120    0.5688 H   0  0  0  0  0  0  0  0  0  0  0  0
   -1.8138    5.7574    1.8521 H   0  0  0  0  0  0  0  0  0  0  0  0
   -0.1404    5.0467    2.1433 H   0  0  0  0  0  0  0  0  0  0  0  0
  1  2  1  0
  2  3  2  0
  3  4  1  0
  4  5  2  0
  5  6  1  0
  6  7  2  0
  7  8  1  0
  8  9  2  0
  3 10  1  0
 10 11  1  0
 10 12  2  0
 12 13  1  0
 13 14  2  0
 14 15  1  0
 15 16  2  0
 16 17  1  0
 17 18  2  0
 18 19  1  0
 19 20  2  0
 20 21  1  0
 21 22  2  0
 16 23  1  0
 23 24  2  0
 24 25  1  0
 25 26  2  0
 26 27  1  0
 27 28  2  0
 28 29  1  0
 14 30  1  0
 30 31  2  0
 31 32  1  0
 31 33  1  0
 33 34  2  0
 34 35  1  0
 34 36  1  0
 36 37  1  0
 37 38  1  0
 37 39  1  0
 13  2  1  0
 29 15  1  0
 36 30  1  0
  9  4  1  0
 37 12  1  0
 22 17  1  0
 29 24  1  0
  1 40  1  0
  1 41  1  0
  1 42  1  0
  5 43  1  0
  6 44  1  0
  7 45  1  0
  8 46  1  0
  9 47  1  0
 11 48  1  0
 11 49  1  0
 11 50  1  0
 18 51  1  0
 19 52  1  0
 20 53  1  0
 21 54  1  0
 25 55  1  0
 26 56  1  0
 27 57  1  0
 28 58  1  0
 32 59  1  0
 32 60  1  0
 32 61  1  0
 33 62  1  0
 35 63  1  0
 35 64  1  0
 35 65  1  0
M  CHG  2  12   1  37  -1
M  END
