
     RDKit          3D

 35 37  0  0  0  0  0  0  0  0999 V2000
    6.2885    0.8302    0.7251 C   0  0  0  0  0  0  0  0  0  0  0  0
    5.5481    0.0617   -0.6734 S   0  0  0  0  0  6  0  0  0  0  0  0
    5.7927    0.9256   -1.8731 O   0  0  0  0  0  0  0  0  0  0  0  0
    6.1690   -1.3063   -0.8283 O   0  0  0  0  0  0  0  0  0  0  0  0
    3.8136   -0.1163   -0.4846 C   0  0  0  0  0  0  0  0  0  0  0  0
    3.2447   -1.2281    0.0801 C   0  0  0  0  0  0  0  0  0  0  0  0
    1.8761   -1.3248    0.2081 C   0  0  0  0  0  0  0  0  0  0  0  0
    1.0081   -0.3125   -0.2231 C   0  0  0  0  0  0  0  0  0  0  0  0
   -0.4319   -0.4579   -0.0675 C   0  0  0  0  0  0  0  0  0  0  0  0
   -1.3020    0.5152   -0.4799 C   0  0  0  0  0  0  0  0  0  0  0  0
   -2.6883    0.3839   -0.3343 C   0  0  0  0  0  0  0  0  0  0  0  0
   -3.5469    1.3796   -0.7582 C   0  0  0  0  0  0  0  0  0  0  0  0
   -4.8884    1.1844   -0.5848 C   0  0  0  0  0  0  0  0  0  0  0  0
   -5.3708    0.0369   -0.0083 C   0  0  0  0  0  0  0  0  0  0  0  0
   -6.7833   -0.0998    0.1414 N   0  0  0  0  0  0  0  0  0  0  0  0
   -4.5081   -0.9546    0.4133 C   0  0  0  0  0  0  0  0  0  0  0  0
   -3.1406   -0.7787    0.2476 C   0  0  0  0  0  0  0  0  0  0  0  0
   -2.2326   -1.7337    0.6491 C   0  0  0  0  0  0  0  0  0  0  0  0
   -2.6814   -2.7829    1.1767 O   0  0  0  0  0  0  0  0  0  0  0  0
   -0.9525   -1.5334    0.4769 O   0  0  0  0  0  0  0  0  0  0  0  0
    1.6156    0.7815   -0.7816 C   0  0  0  0  0  0  0  0  0  0  0  0
    2.9978    0.9045   -0.9230 C   0  0  0  0  0  0  0  0  0  0  0  0
    7.1923    1.3947    0.3634 H   0  0  0  0  0  0  0  0  0  0  0  0
    5.6287    1.5182    1.2645 H   0  0  0  0  0  0  0  0  0  0  0  0
    6.7190    0.0462    1.4124 H   0  0  0  0  0  0  0  0  0  0  0  0
    3.9187   -2.0107    0.4133 H   0  0  0  0  0  0  0  0  0  0  0  0
    1.4678   -2.2089    0.6545 H   0  0  0  0  0  0  0  0  0  0  0  0
   -0.9748    1.4294   -0.9358 H   0  0  0  0  0  0  0  0  0  0  0  0
   -3.1587    2.2875   -1.2147 H   0  0  0  0  0  0  0  0  0  0  0  0
   -5.5539    1.9809   -0.9252 H   0  0  0  0  0  0  0  0  0  0  0  0
   -7.1728   -0.5280    1.0098 H   0  0  0  0  0  0  0  0  0  0  0  0
   -7.4704    0.2065   -0.5753 H   0  0  0  0  0  0  0  0  0  0  0  0
   -4.8736   -1.8668    0.8706 H   0  0  0  0  0  0  0  0  0  0  0  0
    1.0037    1.5943   -1.1329 H   0  0  0  0  0  0  0  0  0  0  0  0
    3.4467    1.7823   -1.3688 H   0  0  0  0  0  0  0  0  0  0  0  0
  1  2  1  0
  2  3  2  0
  2  4  2  0
  2  5  1  0
  5  6  2  0
  6  7  1  0
  7  8  2  0
  8  9  1  0
  9 10  2  0
 10 11  1  0
 11 12  2  0
 12 13  1  0
 13 14  2  0
 14 15  1  0
 14 16  1  0
 16 17  2  0
 17 18  1  0
 18 19  2  0
 18 20  1  0
  8 21  1  0
 21 22  2  0
 22  5  1  0
 20  9  1  0
 17 11  1  0
  1 23  1  0
  1 24  1  0
  1 25  1  0
  6 26  1  0
  7 27  1  0
 10 28  1  0
 12 29  1  0
 13 30  1  0
 15 31  1  0
 15 32  1  0
 16 33  1  0
 21 34  1  0
 22 35  1  0
M  END
