
     RDKit          3D

 82 89  0  0  0  0  0  0  0  0999 V2000
   -0.8926   -2.3804    1.7046 C   0  0  0  0  0  0  0  0  0  0  0  0
    0.3092   -1.6515    1.2307 C   0  0  0  0  0  0  0  0  0  0  0  0
    1.5256   -1.8732    1.6450 N   0  0  0  0  0  4  0  0  0  0  0  0
    2.3769   -0.9888    0.9673 C   0  0  0  0  0  0  0  0  0  0  0  0
    3.7209   -0.9888    1.1839 C   0  0  0  0  0  0  0  0  0  0  0  0
    4.4606   -0.0109    0.4254 C   0  0  0  0  0  0  0  0  0  0  0  0
    5.7287    0.2079    0.4226 C   0  0  0  0  0  0  0  0  0  0  0  0
    6.2958    1.2824   -0.4306 C   0  0  0  0  0  0  0  0  0  0  0  0
    7.6844    1.4101   -0.4367 C   0  0  0  0  0  0  0  0  0  0  0  0
    8.2438    2.4436   -1.1628 C   0  0  0  0  0  0  0  0  0  0  0  0
    7.4910    3.3533   -1.8812 C   0  0  0  0  0  0  0  0  0  0  0  0
    8.0649    4.4745   -2.6582 C   0  0  0  0  0  0  0  0  0  0  0  0
    8.0671    5.6361   -1.8794 F   0  0  0  0  0  0  0  0  0  0  0  0
    9.3547    4.1713   -3.0204 F   0  0  0  0  0  0  0  0  0  0  0  0
    7.2813    4.6651   -3.7879 F   0  0  0  0  0  0  0  0  0  0  0  0
    6.1365    3.2129   -1.8660 C   0  0  0  0  0  0  0  0  0  0  0  0
    5.5523    2.1706   -1.1347 C   0  0  0  0  0  0  0  0  0  0  0  0
    4.3170   -1.9278    2.1073 C   0  0  0  0  0  0  0  0  0  0  0  0
    5.6043   -2.1967    2.5157 C   0  0  0  0  0  0  0  0  0  0  0  0
    5.5852   -3.2612    3.4301 C   0  0  0  0  0  0  0  0  0  0  0  0
    4.2865   -3.6214    3.5624 C   0  0  0  0  0  0  0  0  0  0  0  0
    3.7902   -4.7429    4.4397 C   0  0  0  0  0  0  0  0  0  0  0  0
    3.5429   -2.8112    2.7638 N   0  0  0  0  0  0  0  0  0  0  0  0
    2.0201   -2.8920    2.6576 B   0  0  0  0  0  4  0  0  0  0  0  0
    1.7079   -4.2693    2.2258 F   0  0  0  0  0  0  0  0  0  0  0  0
    1.3673   -2.6689    3.9191 F   0  0  0  0  0  0  0  0  0  0  0  0
    1.5386   -0.1991    0.0771 C   0  0  0  0  0  0  0  0  0  0  0  0
    0.2881   -0.5908    0.2284 C   0  0  0  0  0  0  0  0  0  0  0  0
   -0.8348   -0.1254   -0.5747 C   0  0  0  0  0  0  0  0  0  0  0  0
   -2.1593   -0.0401   -0.2488 C   0  0  0  0  0  0  0  0  0  0  0  0
   -2.9034    0.3062   -1.3936 C   0  0  0  0  0  0  0  0  0  0  0  0
   -2.0463    0.4264   -2.4042 N   0  0  0  0  0  0  0  0  0  0  0  0
   -0.7769    0.1689   -1.9162 C   0  0  0  0  0  0  0  0  0  0  0  0
   -2.4750    0.7407   -3.8239 B   0  0  0  0  0  4  0  0  0  0  0  0
   -2.0322   -0.3393   -4.7085 F   0  0  0  0  0  0  0  0  0  0  0  0
   -1.7946    1.9533   -4.2961 F   0  0  0  0  0  0  0  0  0  0  0  0
   -3.9815    0.9205   -3.9016 N   0  0  0  0  0  4  0  0  0  0  0  0
   -4.7285    1.2081   -4.9565 C   0  0  0  0  0  0  0  0  0  0  0  0
   -6.1146    1.2872   -4.5753 C   0  0  0  0  0  0  0  0  0  0  0  0
   -6.2062    1.0477   -3.2932 C   0  0  0  0  0  0  0  0  0  0  0  0
   -4.8185    0.7911   -2.7721 C   0  0  0  0  0  0  0  0  0  0  0  0
   -4.3425    0.5045   -1.5907 C   0  0  0  0  0  0  0  0  0  0  0  0
   -5.1814    0.4415   -0.4211 C   0  0  0  0  0  0  0  0  0  0  0  0
   -4.9019    1.4363    0.5365 C   0  0  0  0  0  0  0  0  0  0  0  0
   -3.8438    2.4615    0.3323 C   0  0  0  0  0  0  0  0  0  0  0  0
   -5.6558    1.4163    1.6743 C   0  0  0  0  0  0  0  0  0  0  0  0
   -6.6500    0.4875    1.9119 C   0  0  0  0  0  0  0  0  0  0  0  0
   -7.4453    0.5270    3.1869 C   0  0  0  0  0  0  0  0  0  0  0  0
   -6.8706   -0.4583    0.9355 C   0  0  0  0  0  0  0  0  0  0  0  0
   -6.1439   -0.5132   -0.2610 C   0  0  0  0  0  0  0  0  0  0  0  0
   -6.4310   -1.6098   -1.2030 C   0  0  0  0  0  0  0  0  0  0  0  0
   -1.2736   -1.9417    2.6539 H   0  0  0  0  0  0  0  0  0  0  0  0
   -0.5442   -3.4321    1.9265 H   0  0  0  0  0  0  0  0  0  0  0  0
   -1.6545   -2.4906    0.9285 H   0  0  0  0  0  0  0  0  0  0  0  0
    3.8891    0.6553   -0.2507 H   0  0  0  0  0  0  0  0  0  0  0  0
    6.4031   -0.3680    1.0159 H   0  0  0  0  0  0  0  0  0  0  0  0
    8.2855    0.7013    0.1223 H   0  0  0  0  0  0  0  0  0  0  0  0
    9.3210    2.5426   -1.1681 H   0  0  0  0  0  0  0  0  0  0  0  0
    5.4671    3.8846   -2.4057 H   0  0  0  0  0  0  0  0  0  0  0  0
    4.4819    2.1277   -1.1711 H   0  0  0  0  0  0  0  0  0  0  0  0
    6.5157   -1.7124    2.2220 H   0  0  0  0  0  0  0  0  0  0  0  0
    6.4892   -3.6653    3.9000 H   0  0  0  0  0  0  0  0  0  0  0  0
    3.2997   -5.5108    3.8362 H   0  0  0  0  0  0  0  0  0  0  0  0
    4.5960   -5.1075    5.0923 H   0  0  0  0  0  0  0  0  0  0  0  0
    3.0226   -4.2746    5.1077 H   0  0  0  0  0  0  0  0  0  0  0  0
    1.9041    0.5930   -0.6018 H   0  0  0  0  0  0  0  0  0  0  0  0
   -2.5702   -0.2108    0.7336 H   0  0  0  0  0  0  0  0  0  0  0  0
    0.1404    0.1897   -2.4843 H   0  0  0  0  0  0  0  0  0  0  0  0
   -4.2685    1.3429   -5.9298 H   0  0  0  0  0  0  0  0  0  0  0  0
   -6.9369    1.5007   -5.2265 H   0  0  0  0  0  0  0  0  0  0  0  0
   -7.0596    1.0130   -2.6243 H   0  0  0  0  0  0  0  0  0  0  0  0
   -4.3342    3.4521    0.5966 H   0  0  0  0  0  0  0  0  0  0  0  0
   -3.5248    2.5905   -0.7077 H   0  0  0  0  0  0  0  0  0  0  0  0
   -3.0173    2.3998    1.0690 H   0  0  0  0  0  0  0  0  0  0  0  0
   -5.4668    2.1665    2.4333 H   0  0  0  0  0  0  0  0  0  0  0  0
   -7.8300   -0.4967    3.3401 H   0  0  0  0  0  0  0  0  0  0  0  0
   -8.2195    1.2931    3.1932 H   0  0  0  0  0  0  0  0  0  0  0  0
   -6.7177    0.7606    4.0165 H   0  0  0  0  0  0  0  0  0  0  0  0
   -7.6666   -1.1991    1.1270 H   0  0  0  0  0  0  0  0  0  0  0  0
   -6.0473   -1.5415   -2.1969 H   0  0  0  0  0  0  0  0  0  0  0  0
   -7.5604   -1.6374   -1.3147 H   0  0  0  0  0  0  0  0  0  0  0  0
   -6.2347   -2.6164   -0.7185 H   0  0  0  0  0  0  0  0  0  0  0  0
  1  2  1  0
  2  3  2  0
  3  4  1  0
  4  5  2  0
  5  6  1  0
  6  7  2  0
  7  8  1  0
  8  9  2  0
  9 10  1  0
 10 11  2  0
 11 12  1  0
 12 13  1  0
 12 14  1  0
 12 15  1  0
 11 16  1  0
 16 17  2  0
  5 18  1  0
 18 19  2  0
 19 20  1  0
 20 21  2  0
 21 22  1  0
 21 23  1  0
 23 24  1  0
 24 25  1  0
 24 26  1  0
  4 27  1  0
 27 28  2  0
 28 29  1  0
 29 30  1  0
 30 31  2  0
 31 32  1  0
 32 33  1  0
 32 34  1  0
 34 35  1  0
 34 36  1  0
 34 37  1  0
 37 38  2  0
 38 39  1  0
 39 40  2  0
 40 41  1  0
 41 42  2  0
 42 43  1  0
 43 44  2  0
 44 45  1  0
 44 46  1  0
 46 47  2  0
 47 48  1  0
 47 49  1  0
 49 50  2  0
 50 51  1  0
 28  2  1  0
 33 29  2  0
 41 37  1  0
 50 43  1  0
 24  3  1  0
 42 31  1  0
 17  8  1  0
 23 18  1  0
  1 52  1  0
  1 53  1  0
  1 54  1  0
  6 55  1  0
  7 56  1  0
  9 57  1  0
 10 58  1  0
 16 59  1  0
 17 60  1  0
 19 61  1  0
 20 62  1  0
 22 63  1  0
 22 64  1  0
 22 65  1  0
 27 66  1  0
 30 67  1  0
 33 68  1  0
 38 69  1  0
 39 70  1  0
 40 71  1  0
 45 72  1  0
 45 73  1  0
 45 74  1  0
 46 75  1  0
 48 76  1  0
 48 77  1  0
 48 78  1  0
 49 79  1  0
 51 80  1  0
 51 81  1  0
 51 82  1  0
M  CHG  4   3   1  24  -1  34  -1  37   1
M  END
