
     RDKit          3D

 24 25  0  0  0  0  0  0  0  0999 V2000
    3.9456   -0.0949   -0.0901 C   0  0  0  0  0  0  0  0  0  0  0  0
    2.4597   -0.1480    0.1271 C   0  0  0  0  0  0  0  0  0  0  0  0
    2.0287   -0.6892    1.3295 C   0  0  0  0  0  0  0  0  0  0  0  0
    0.6649   -0.7406    1.5345 C   0  0  0  0  0  0  0  0  0  0  0  0
   -0.2179   -0.2725    0.5809 C   0  0  0  0  0  0  0  0  0  0  0  0
   -1.5815   -0.3250    0.7883 C   0  0  0  0  0  0  0  0  0  0  0  0
   -2.4601    0.1442   -0.1682 C   0  0  0  0  0  0  0  0  0  0  0  0
   -3.9226    0.0703    0.0925 C   0  0  0  0  0  0  0  0  0  0  0  0
   -2.0250    0.6812   -1.3617 C   0  0  0  0  0  0  0  0  0  0  0  0
   -0.6656    0.7350   -1.5716 C   0  0  0  0  0  0  0  0  0  0  0  0
    0.2253    0.2637   -0.6115 C   0  0  0  0  0  0  0  0  0  0  0  0
    1.5864    0.3226   -0.8327 C   0  0  0  0  0  0  0  0  0  0  0  0
    4.2095   -0.9479   -0.7293 H   0  0  0  0  0  0  0  0  0  0  0  0
    4.4823   -0.0851    0.8842 H   0  0  0  0  0  0  0  0  0  0  0  0
    4.1828    0.8421   -0.6163 H   0  0  0  0  0  0  0  0  0  0  0  0
    2.7340   -1.0530    2.0694 H   0  0  0  0  0  0  0  0  0  0  0  0
    0.3218   -1.1663    2.4805 H   0  0  0  0  0  0  0  0  0  0  0  0
   -1.9328   -0.7495    1.7322 H   0  0  0  0  0  0  0  0  0  0  0  0
   -4.1386   -0.5719    0.9613 H   0  0  0  0  0  0  0  0  0  0  0  0
   -4.3061    1.0942    0.3745 H   0  0  0  0  0  0  0  0  0  0  0  0
   -4.4797   -0.2345   -0.8009 H   0  0  0  0  0  0  0  0  0  0  0  0
   -2.7613    1.0294   -2.0656 H   0  0  0  0  0  0  0  0  0  0  0  0
   -0.3262    1.1523   -2.4991 H   0  0  0  0  0  0  0  0  0  0  0  0
    1.9766    0.7434   -1.7713 H   0  0  0  0  0  0  0  0  0  0  0  0
  1  2  1  0
  2  3  2  0
  3  4  1  0
  4  5  2  0
  5  6  1  0
  6  7  2  0
  7  8  1  0
  7  9  1  0
  9 10  2  0
 10 11  1  0
 11 12  2  0
 12  2  1  0
 11  5  1  0
  1 13  1  0
  1 14  1  0
  1 15  1  0
  3 16  1  0
  4 17  1  0
  6 18  1  0
  8 19  1  0
  8 20  1  0
  8 21  1  0
  9 22  1  0
 10 23  1  0
 12 24  1  0
M  END
