
     RDKit          3D

 82 88  0  0  0  0  0  0  0  0999 V2000
    3.3431    0.5420    2.4599 C   0  0  0  0  0  0  0  0  0  0  0  0
    2.1177    0.4347    2.0391 C   0  0  0  0  0  0  0  0  0  0  0  0
    0.9777    0.5483    2.9406 C   0  0  0  0  0  0  0  0  0  0  0  0
   -0.3226    0.4423    2.4592 C   0  0  0  0  0  0  0  0  0  0  0  0
   -1.4221    0.5356    3.2663 C   0  0  0  0  0  0  0  0  0  0  0  0
   -2.7804    0.4364    2.7850 C   0  0  0  0  0  0  0  0  0  0  0  0
   -3.0958    0.2680    1.5234 C   0  0  0  0  0  0  0  0  0  0  0  0
   -4.4379    0.1612    0.9841 C   0  0  0  0  0  0  0  0  0  0  0  0
   -5.5217    0.2135    1.8112 C   0  0  0  0  0  0  0  0  0  0  0  0
   -6.8456    0.1216    1.3514 C   0  0  0  0  0  0  0  0  0  0  0  0
   -7.0673   -0.0241    0.0396 C   0  0  0  0  0  0  0  0  0  0  0  0
   -8.3347   -0.1164   -0.5890 N   0  0  0  0  0  0  0  0  0  0  0  0
   -9.3982    0.7346   -0.2963 C   0  0  0  0  0  0  0  0  0  0  0  0
   -9.8920    0.9521    0.9571 C   0  0  0  0  0  0  0  0  0  0  0  0
  -10.8788    1.9170    1.2301 C   0  0  0  0  0  0  0  0  0  0  0  0
  -11.4027    2.6970    0.2345 C   0  0  0  0  0  0  0  0  0  0  0  0
  -10.9267    2.4997   -1.0350 C   0  0  0  0  0  0  0  0  0  0  0  0
   -9.9541    1.5494   -1.2964 C   0  0  0  0  0  0  0  0  0  0  0  0
   -8.4207   -1.2803   -1.4541 C   0  0  0  0  0  0  0  0  0  0  0  0
   -8.9144   -1.2868   -2.6962 C   0  0  0  0  0  0  0  0  0  0  0  0
   -8.9536   -2.4944   -3.4225 C   0  0  0  0  0  0  0  0  0  0  0  0
   -8.4885   -3.6602   -2.8632 C   0  0  0  0  0  0  0  0  0  0  0  0
   -7.9769   -3.6730   -1.5872 C   0  0  0  0  0  0  0  0  0  0  0  0
   -7.9479   -2.4858   -0.8962 C   0  0  0  0  0  0  0  0  0  0  0  0
   -5.9536   -0.0803   -0.8299 C   0  0  0  0  0  0  0  0  0  0  0  0
   -4.6611    0.0100   -0.3739 C   0  0  0  0  0  0  0  0  0  0  0  0
   -1.1858    0.7407    4.5874 N   0  0  0  0  0  0  0  0  0  0  0  0
    0.0548    0.8486    5.0909 C   0  0  0  0  0  0  0  0  0  0  0  0
    1.1258    0.7508    4.2587 N   0  0  0  0  0  0  0  0  0  0  0  0
    4.5377    0.4405    1.6261 C   0  0  0  0  0  0  0  0  0  0  0  0
    4.4971    0.2034    0.2853 C   0  0  0  0  0  0  0  0  0  0  0  0
    5.6724    0.1150   -0.4784 C   0  0  0  0  0  0  0  0  0  0  0  0
    6.9245    0.2565    0.0603 C   0  0  0  0  0  0  0  0  0  0  0  0
    8.1485    0.0401   -0.6086 N   0  0  0  0  0  0  0  0  0  0  0  0
    8.4370   -1.1940   -1.2709 C   0  0  0  0  0  0  0  0  0  0  0  0
    9.7125   -1.7259   -1.0132 C   0  0  0  0  0  0  0  0  0  0  0  0
   10.1614   -2.8826   -1.5698 C   0  0  0  0  0  0  0  0  0  0  0  0
    9.3258   -3.5561   -2.4207 C   0  0  0  0  0  0  0  0  0  0  0  0
    8.0860   -3.0569   -2.6834 C   0  0  0  0  0  0  0  0  0  0  0  0
    7.6224   -1.8563   -2.1049 C   0  0  0  0  0  0  0  0  0  0  0  0
    9.1389    1.0850   -0.8125 C   0  0  0  0  0  0  0  0  0  0  0  0
    9.5188    1.9637    0.1277 C   0  0  0  0  0  0  0  0  0  0  0  0
   10.4971    2.9409   -0.1457 C   0  0  0  0  0  0  0  0  0  0  0  0
   11.0767    3.0088   -1.3818 C   0  0  0  0  0  0  0  0  0  0  0  0
   10.6933    2.1123   -2.3527 C   0  0  0  0  0  0  0  0  0  0  0  0
    9.7344    1.1588   -2.0741 C   0  0  0  0  0  0  0  0  0  0  0  0
    6.9349    0.4997    1.4464 C   0  0  0  0  0  0  0  0  0  0  0  0
    5.7802    0.5881    2.1947 C   0  0  0  0  0  0  0  0  0  0  0  0
    3.4742    0.7226    3.5300 H   0  0  0  0  0  0  0  0  0  0  0  0
    1.9336    0.2573    0.9992 H   0  0  0  0  0  0  0  0  0  0  0  0
   -0.4110    0.2808    1.4059 H   0  0  0  0  0  0  0  0  0  0  0  0
   -3.5764    0.5059    3.5112 H   0  0  0  0  0  0  0  0  0  0  0  0
   -2.2803    0.1987    0.7793 H   0  0  0  0  0  0  0  0  0  0  0  0
   -5.4207    0.3289    2.8826 H   0  0  0  0  0  0  0  0  0  0  0  0
   -7.6076    0.1654    2.1113 H   0  0  0  0  0  0  0  0  0  0  0  0
   -9.5759    0.3453    1.7824 H   0  0  0  0  0  0  0  0  0  0  0  0
  -11.2163    2.0297    2.2532 H   0  0  0  0  0  0  0  0  0  0  0  0
  -12.1700    3.4451    0.4529 H   0  0  0  0  0  0  0  0  0  0  0  0
  -11.3262    3.1028   -1.8381 H   0  0  0  0  0  0  0  0  0  0  0  0
   -9.5907    1.4662   -2.3013 H   0  0  0  0  0  0  0  0  0  0  0  0
   -9.2770   -0.4012   -3.1610 H   0  0  0  0  0  0  0  0  0  0  0  0
   -9.3625   -2.4438   -4.4226 H   0  0  0  0  0  0  0  0  0  0  0  0
   -8.5119   -4.5903   -3.4045 H   0  0  0  0  0  0  0  0  0  0  0  0
   -7.6097   -4.5872   -1.1458 H   0  0  0  0  0  0  0  0  0  0  0  0
   -7.5529   -2.4726    0.1020 H   0  0  0  0  0  0  0  0  0  0  0  0
   -6.1284   -0.1987   -1.8841 H   0  0  0  0  0  0  0  0  0  0  0  0
   -3.7995   -0.0311   -1.0326 H   0  0  0  0  0  0  0  0  0  0  0  0
    0.1796    1.0123    6.1536 H   0  0  0  0  0  0  0  0  0  0  0  0
    3.5312    0.0761   -0.2236 H   0  0  0  0  0  0  0  0  0  0  0  0
    5.5537   -0.0252   -1.5373 H   0  0  0  0  0  0  0  0  0  0  0  0
   10.3893   -1.2059   -0.3394 H   0  0  0  0  0  0  0  0  0  0  0  0
   11.1460   -3.2837   -1.3635 H   0  0  0  0  0  0  0  0  0  0  0  0
    9.6441   -4.4901   -2.8926 H   0  0  0  0  0  0  0  0  0  0  0  0
    7.4190   -3.5855   -3.3546 H   0  0  0  0  0  0  0  0  0  0  0  0
    6.6383   -1.5470   -2.3845 H   0  0  0  0  0  0  0  0  0  0  0  0
    9.1334    2.0127    1.1145 H   0  0  0  0  0  0  0  0  0  0  0  0
   10.8064    3.6509    0.6093 H   0  0  0  0  0  0  0  0  0  0  0  0
   11.8267    3.7643   -1.5804 H   0  0  0  0  0  0  0  0  0  0  0  0
   11.1802    2.2038   -3.3172 H   0  0  0  0  0  0  0  0  0  0  0  0
    9.4750    0.4867   -2.8682 H   0  0  0  0  0  0  0  0  0  0  0  0
    7.8818    0.5797    1.9796 H   0  0  0  0  0  0  0  0  0  0  0  0
    5.8689    0.7839    3.2815 H   0  0  0  0  0  0  0  0  0  0  0  0
  1  2  2  0
  2  3  1  0
  3  4  2  0
  4  5  1  0
  5  6  1  0
  6  7  2  0
  7  8  1  0
  8  9  2  0
  9 10  1  0
 10 11  2  0
 11 12  1  0
 12 13  1  0
 13 14  2  0
 14 15  1  0
 15 16  2  0
 16 17  1  0
 17 18  2  0
 12 19  1  0
 19 20  2  0
 20 21  1  0
 21 22  2  0
 22 23  1  0
 23 24  2  0
 11 25  1  0
 25 26  2  0
  5 27  2  0
 27 28  1  0
 28 29  2  0
  1 30  1  0
 30 31  2  0
 31 32  1  0
 32 33  2  0
 33 34  1  0
 34 35  1  0
 35 36  2  0
 36 37  1  0
 37 38  2  0
 38 39  1  0
 39 40  2  0
 34 41  1  0
 41 42  2  0
 42 43  1  0
 43 44  2  0
 44 45  1  0
 45 46  2  0
 33 47  1  0
 47 48  2  0
 29  3  1  0
 48 30  1  0
 26  8  1  0
 40 35  1  0
 46 41  1  0
 18 13  1  0
 24 19  1  0
  1 49  1  0
  2 50  1  0
  4 51  1  0
  6 52  1  0
  7 53  1  0
  9 54  1  0
 10 55  1  0
 14 56  1  0
 15 57  1  0
 16 58  1  0
 17 59  1  0
 18 60  1  0
 20 61  1  0
 21 62  1  0
 22 63  1  0
 23 64  1  0
 24 65  1  0
 25 66  1  0
 26 67  1  0
 28 68  1  0
 31 69  1  0
 32 70  1  0
 36 71  1  0
 37 72  1  0
 38 73  1  0
 39 74  1  0
 40 75  1  0
 42 76  1  0
 43 77  1  0
 44 78  1  0
 45 79  1  0
 46 80  1  0
 47 81  1  0
 48 82  1  0
M  END
