
     RDKit          3D

 68 76  0  0  0  0  0  0  0  0999 V2000
   13.1374    0.9732    1.5268 C   0  0  0  0  0  0  0  0  0  0  0  0
   11.9879    0.9699    2.2746 C   0  0  0  0  0  0  0  0  0  0  0  0
   10.7557    0.6391    1.7282 C   0  0  0  0  0  0  0  0  0  0  0  0
   10.6927    0.3037    0.3994 C   0  0  0  0  0  0  0  0  0  0  0  0
    9.5064    0.0089   -0.1863 C   0  0  0  0  0  0  0  0  0  0  0  0
    8.2605   -0.2034    0.5493 C   0  0  0  0  0  0  0  0  0  0  0  0
    7.9708   -0.7021    1.7822 C   0  0  0  0  0  0  0  0  0  0  0  0
    6.6837   -0.8598    2.1246 C   0  0  0  0  0  0  0  0  0  0  0  0
    5.7328   -0.5122    1.2123 C   0  0  0  0  0  0  0  0  0  0  0  0
    4.2698   -0.5849    1.3344 C   0  0  0  0  0  0  0  0  0  0  0  0
    3.5678   -1.0103    2.3668 N   0  0  0  0  0  0  0  0  0  0  0  0
    2.2531   -0.9209    2.0909 N   0  0  0  0  0  0  0  0  0  0  0  0
    2.1838   -0.4223    0.8450 C   0  0  0  0  0  0  0  0  0  0  0  0
    0.9539   -0.1496    0.1158 C   0  0  0  0  0  0  0  0  0  0  0  0
   -0.2866   -0.3859    0.6546 C   0  0  0  0  0  0  0  0  0  0  0  0
   -1.4595   -0.1348   -0.0162 C   0  0  0  0  0  0  0  0  0  0  0  0
   -1.4184    0.3777   -1.2897 C   0  0  0  0  0  0  0  0  0  0  0  0
   -2.6606    0.6581   -2.0340 C   0  0  0  0  0  0  0  0  0  0  0  0
   -2.8125    1.1512   -3.2693 N   0  0  0  0  0  0  0  0  0  0  0  0
   -4.1227    1.2280   -3.5082 N   0  0  0  0  0  0  0  0  0  0  0  0
   -4.7654    0.7928   -2.4457 C   0  0  0  0  0  0  0  0  0  0  0  0
   -6.2245    0.7065   -2.2831 C   0  0  0  0  0  0  0  0  0  0  0  0
   -7.2058    1.0431   -3.1574 C   0  0  0  0  0  0  0  0  0  0  0  0
   -8.4851    0.8691   -2.7702 C   0  0  0  0  0  0  0  0  0  0  0  0
   -8.7051    0.3599   -1.5097 C   0  0  0  0  0  0  0  0  0  0  0  0
  -10.0134    0.1051   -0.9212 C   0  0  0  0  0  0  0  0  0  0  0  0
  -11.1457    0.3770   -1.6583 C   0  0  0  0  0  0  0  0  0  0  0  0
  -12.4377    0.1717   -1.1956 C   0  0  0  0  0  0  0  0  0  0  0  0
  -12.5421   -0.3331    0.0761 C   0  0  0  0  0  0  0  0  0  0  0  0
  -11.4423   -0.6200    0.8496 C   0  0  0  0  0  0  0  0  0  0  0  0
  -11.6187   -1.1283    2.1279 C   0  0  0  0  0  0  0  0  0  0  0  0
  -10.5524   -1.4285    2.9349 C   0  0  0  0  0  0  0  0  0  0  0  0
   -9.2895   -1.2118    2.4426 C   0  0  0  0  0  0  0  0  0  0  0  0
   -9.1220   -0.7028    1.1622 C   0  0  0  0  0  0  0  0  0  0  0  0
  -10.1609   -0.3918    0.3291 C   0  0  0  0  0  0  0  0  0  0  0  0
   -7.1178    0.1575   -0.9477 S   0  0  0  0  0  0  0  0  0  0  0  0
   -3.8706    0.4501   -1.5588 O   0  0  0  0  0  0  0  0  0  0  0  0
   -0.1840    0.6247   -1.8558 C   0  0  0  0  0  0  0  0  0  0  0  0
    0.9730    0.3668   -1.1684 C   0  0  0  0  0  0  0  0  0  0  0  0
    3.4129   -0.2288    0.4117 O   0  0  0  0  0  0  0  0  0  0  0  0
    6.6534    0.0285   -0.1061 S   0  0  0  0  0  0  0  0  0  0  0  0
    9.4314   -0.2838   -1.5624 C   0  0  0  0  0  0  0  0  0  0  0  0
   10.5989   -0.2658   -2.2835 C   0  0  0  0  0  0  0  0  0  0  0  0
   11.8077    0.0243   -1.7049 C   0  0  0  0  0  0  0  0  0  0  0  0
   11.8669    0.3112   -0.3601 C   0  0  0  0  0  0  0  0  0  0  0  0
   13.0776    0.6413    0.1955 C   0  0  0  0  0  0  0  0  0  0  0  0
   14.0948    1.2360    1.9776 H   0  0  0  0  0  0  0  0  0  0  0  0
   12.0518    1.2345    3.3228 H   0  0  0  0  0  0  0  0  0  0  0  0
    9.8605    0.7039    2.3506 H   0  0  0  0  0  0  0  0  0  0  0  0
    8.7761   -1.0318    2.4934 H   0  0  0  0  0  0  0  0  0  0  0  0
    6.3510   -1.2591    3.1139 H   0  0  0  0  0  0  0  0  0  0  0  0
   -0.3027   -0.7911    1.6622 H   0  0  0  0  0  0  0  0  0  0  0  0
   -2.4023   -0.3329    0.4391 H   0  0  0  0  0  0  0  0  0  0  0  0
   -6.9517    1.4529   -4.1689 H   0  0  0  0  0  0  0  0  0  0  0  0
   -9.3489    1.1243   -3.4361 H   0  0  0  0  0  0  0  0  0  0  0  0
  -11.1087    0.7795   -2.6744 H   0  0  0  0  0  0  0  0  0  0  0  0
  -13.3077    0.3945   -1.7979 H   0  0  0  0  0  0  0  0  0  0  0  0
  -13.5537   -0.5047    0.4655 H   0  0  0  0  0  0  0  0  0  0  0  0
  -12.6450   -1.2826    2.4727 H   0  0  0  0  0  0  0  0  0  0  0  0
  -10.6739   -1.8200    3.9202 H   0  0  0  0  0  0  0  0  0  0  0  0
   -8.4460   -1.4524    3.0882 H   0  0  0  0  0  0  0  0  0  0  0  0
   -8.1093   -0.5631    0.8552 H   0  0  0  0  0  0  0  0  0  0  0  0
   -0.1468    1.0307   -2.8645 H   0  0  0  0  0  0  0  0  0  0  0  0
    1.9572    0.5586   -1.6065 H   0  0  0  0  0  0  0  0  0  0  0  0
    8.4806   -0.5070   -1.9941 H   0  0  0  0  0  0  0  0  0  0  0  0
   10.6001   -0.4859   -3.3590 H   0  0  0  0  0  0  0  0  0  0  0  0
   12.7212    0.0281   -2.3082 H   0  0  0  0  0  0  0  0  0  0  0  0
   13.9685    0.6293   -0.4480 H   0  0  0  0  0  0  0  0  0  0  0  0
  1  2  2  0
  2  3  1  0
  3  4  2  0
  4  5  1  0
  5  6  1  0
  6  7  2  0
  7  8  1  0
  8  9  2  0
  9 10  1  0
 10 11  2  0
 11 12  1  0
 12 13  2  0
 13 14  1  0
 14 15  2  0
 15 16  1  0
 16 17  2  0
 17 18  1  0
 18 19  2  0
 19 20  1  0
 20 21  2  0
 21 22  1  0
 22 23  2  0
 23 24  1  0
 24 25  2  0
 25 26  1  0
 26 27  2  0
 27 28  1  0
 28 29  2  0
 29 30  1  0
 30 31  2  0
 31 32  1  0
 32 33  2  0
 33 34  1  0
 34 35  2  0
 25 36  1  0
 21 37  1  0
 17 38  1  0
 38 39  2  0
 13 40  1  0
  9 41  1  0
  5 42  2  0
 42 43  1  0
 43 44  2  0
 44 45  1  0
 45 46  2  0
 46  1  1  0
 45  4  1  0
 41  6  1  0
 40 10  1  0
 39 14  1  0
 37 18  1  0
 36 22  1  0
 35 26  1  0
 35 30  1  0
  1 47  1  0
  2 48  1  0
  3 49  1  0
  7 50  1  0
  8 51  1  0
 15 52  1  0
 16 53  1  0
 23 54  1  0
 24 55  1  0
 27 56  1  0
 28 57  1  0
 29 58  1  0
 31 59  1  0
 32 60  1  0
 33 61  1  0
 34 62  1  0
 38 63  1  0
 39 64  1  0
 42 65  1  0
 43 66  1  0
 44 67  1  0
 46 68  1  0
M  END
