
     RDKit          3D

 39 42  0  0  0  0  0  0  0  0999 V2000
   -2.9235   -3.4658   -1.0435 C   0  0  0  0  0  0  0  0  0  0  0  0
   -1.6597   -3.8705   -0.7148 O   0  0  0  0  0  0  0  0  0  0  0  0
   -0.5897   -3.0161   -0.5670 C   0  0  0  0  0  0  0  0  0  0  0  0
   -0.6488   -1.7507   -0.2770 N   0  0  0  0  0  4  0  0  0  0  0  0
    0.6825   -1.2525   -0.2218 C   0  0  0  0  0  0  0  0  0  0  0  0
    0.9660    0.0336    0.0324 C   0  0  0  0  0  0  0  0  0  0  0  0
    2.3492    0.4790    0.0793 C   0  0  0  0  0  0  0  0  0  0  0  0
    3.2543   -0.2153    0.8404 C   0  0  0  0  0  0  0  0  0  0  0  0
    4.5625    0.2130    0.8568 C   0  0  0  0  0  0  0  0  0  0  0  0
    4.9995    1.3203    0.1327 C   0  0  0  0  0  0  0  0  0  0  0  0
    4.0366    1.9654   -0.6056 C   0  0  0  0  0  0  0  0  0  0  0  0
    2.7102    1.5860   -0.6644 C   0  0  0  0  0  0  0  0  0  0  0  0
   -0.1181    0.9709    0.2713 C   0  0  0  0  0  0  0  0  0  0  0  0
   -0.0477    2.3350    0.5387 C   0  0  0  0  0  0  0  0  0  0  0  0
   -1.3404    2.7780    0.6771 C   0  0  0  0  0  0  0  0  0  0  0  0
   -2.1254    1.6914    0.4932 C   0  0  0  0  0  0  0  0  0  0  0  0
   -3.5153    1.6583    0.5407 O   0  0  0  0  0  0  0  0  0  0  0  0
   -4.3078    2.7791    0.7908 C   0  0  0  0  0  0  0  0  0  0  0  0
   -1.3798    0.5580    0.2401 N   0  0  0  0  0  0  0  0  0  0  0  0
   -1.8419   -0.8860   -0.0155 B   0  0  0  0  0  4  0  0  0  0  0  0
   -2.7381   -0.7094   -1.1556 F   0  0  0  0  0  0  0  0  0  0  0  0
   -2.5333   -1.1793    1.2297 F   0  0  0  0  0  0  0  0  0  0  0  0
    1.5784   -2.3868   -0.5188 C   0  0  0  0  0  0  0  0  0  0  0  0
    0.8349   -3.4130   -0.7188 C   0  0  0  0  0  0  0  0  0  0  0  0
   -3.4727   -4.4900   -1.0864 H   0  0  0  0  0  0  0  0  0  0  0  0
   -3.1334   -3.1401   -2.0722 H   0  0  0  0  0  0  0  0  0  0  0  0
   -3.5504   -3.0138   -0.2469 H   0  0  0  0  0  0  0  0  0  0  0  0
    2.9475   -1.0943    1.4448 H   0  0  0  0  0  0  0  0  0  0  0  0
    5.2789   -0.3393    1.4615 H   0  0  0  0  0  0  0  0  0  0  0  0
    6.0446    1.6490    0.1558 H   0  0  0  0  0  0  0  0  0  0  0  0
    4.3620    2.8379   -1.1818 H   0  0  0  0  0  0  0  0  0  0  0  0
    1.9851    2.1368   -1.2786 H   0  0  0  0  0  0  0  0  0  0  0  0
    0.8406    2.9516    0.6304 H   0  0  0  0  0  0  0  0  0  0  0  0
   -1.6396    3.7956    0.8910 H   0  0  0  0  0  0  0  0  0  0  0  0
   -3.8081    3.5815    1.3472 H   0  0  0  0  0  0  0  0  0  0  0  0
   -4.7466    3.1147   -0.1784 H   0  0  0  0  0  0  0  0  0  0  0  0
   -5.1820    2.4593    1.3995 H   0  0  0  0  0  0  0  0  0  0  0  0
    2.6676   -2.2658   -0.5474 H   0  0  0  0  0  0  0  0  0  0  0  0
    1.2020   -4.4056   -0.9589 H   0  0  0  0  0  0  0  0  0  0  0  0
  1  2  1  0
  2  3  1  0
  3  4  2  0
  4  5  1  0
  5  6  2  0
  6  7  1  0
  7  8  2  0
  8  9  1  0
  9 10  2  0
 10 11  1  0
 11 12  2  0
  6 13  1  0
 13 14  2  0
 14 15  1  0
 15 16  2  0
 16 17  1  0
 17 18  1  0
 16 19  1  0
 19 20  1  0
 20 21  1  0
 20 22  1  0
  5 23  1  0
 23 24  2  0
 24  3  1  0
 20  4  1  0
 12  7  1  0
 19 13  1  0
  1 25  1  0
  1 26  1  0
  1 27  1  0
  8 28  1  0
  9 29  1  0
 10 30  1  0
 11 31  1  0
 12 32  1  0
 14 33  1  0
 15 34  1  0
 18 35  1  0
 18 36  1  0
 18 37  1  0
 23 38  1  0
 24 39  1  0
M  CHG  2   4   1  20  -1
M  END
