
     RDKit          3D

 40 42  0  0  0  0  0  0  0  0999 V2000
   -3.9044    4.3906   -0.4615 C   0  0  0  0  0  0  0  0  0  0  0  0
   -2.6583    3.7619   -0.6373 O   0  0  0  0  0  0  0  0  0  0  0  0
   -2.2888    2.6174    0.1026 C   0  0  0  0  0  0  0  0  0  0  0  0
   -3.1438    2.2223    0.9043 O   0  0  0  0  0  0  0  0  0  0  0  0
   -0.9876    2.0110   -0.1221 C   0  0  0  0  0  0  0  0  0  0  0  0
   -0.0635    2.4937   -0.9805 N   0  0  0  0  0  0  0  0  0  0  0  0
    1.0510    1.7526   -0.9554 C   0  0  0  0  0  0  0  0  0  0  0  0
    2.2439    1.8681   -1.6490 C   0  0  0  0  0  0  0  0  0  0  0  0
    3.1985    0.9567   -1.3947 N   0  0  0  0  0  0  0  0  0  0  0  0
    2.9891   -0.0281   -0.4969 C   0  0  0  0  0  0  0  0  0  0  0  0
    4.0477   -0.9452   -0.2859 N   0  0  0  0  0  0  0  0  0  0  0  0
    4.3210   -1.3116    1.1087 C   0  0  0  0  0  0  0  0  0  0  0  0
    4.8607   -1.5507   -1.3045 C   0  0  0  0  0  0  0  0  0  0  0  0
    1.8083   -0.1475    0.1902 N   0  0  0  0  0  0  0  0  0  0  0  0
    0.8355    0.7465   -0.0404 C   0  0  0  0  0  0  0  0  0  0  0  0
   -0.4382    0.9353    0.4557 N   0  0  0  0  0  0  0  0  0  0  0  0
   -1.0180    0.0828    1.4393 C   0  0  0  0  0  0  0  0  0  0  0  0
   -1.7198   -1.1211    0.9194 C   0  0  0  0  0  0  0  0  0  0  0  0
   -1.0045   -2.3086    0.6899 C   0  0  0  0  0  0  0  0  0  0  0  0
   -1.6366   -3.4265    0.2214 C   0  0  0  0  0  0  0  0  0  0  0  0
   -2.9843   -3.4583   -0.0469 C   0  0  0  0  0  0  0  0  0  0  0  0
   -3.7040   -2.3114    0.1700 C   0  0  0  0  0  0  0  0  0  0  0  0
   -3.0498   -1.1678    0.6498 C   0  0  0  0  0  0  0  0  0  0  0  0
   -4.7713    3.7184   -0.6787 H   0  0  0  0  0  0  0  0  0  0  0  0
   -3.9703    5.2055   -1.2169 H   0  0  0  0  0  0  0  0  0  0  0  0
   -3.9958    4.8924    0.5270 H   0  0  0  0  0  0  0  0  0  0  0  0
    2.4468    2.6434   -2.3719 H   0  0  0  0  0  0  0  0  0  0  0  0
    5.3231   -1.7440    1.2515 H   0  0  0  0  0  0  0  0  0  0  0  0
    4.3156   -0.3711    1.7085 H   0  0  0  0  0  0  0  0  0  0  0  0
    3.5528   -2.0148    1.4706 H   0  0  0  0  0  0  0  0  0  0  0  0
    4.9208   -2.6638   -1.1696 H   0  0  0  0  0  0  0  0  0  0  0  0
    5.8894   -1.1038   -1.2169 H   0  0  0  0  0  0  0  0  0  0  0  0
    4.4689   -1.3286   -2.3116 H   0  0  0  0  0  0  0  0  0  0  0  0
   -0.1837   -0.2749    2.1143 H   0  0  0  0  0  0  0  0  0  0  0  0
   -1.7254    0.5845    2.1293 H   0  0  0  0  0  0  0  0  0  0  0  0
    0.0397   -2.3281    0.8863 H   0  0  0  0  0  0  0  0  0  0  0  0
   -1.0915   -4.3522    0.0429 H   0  0  0  0  0  0  0  0  0  0  0  0
   -3.5123   -4.3286   -0.4160 H   0  0  0  0  0  0  0  0  0  0  0  0
   -4.7803   -2.2692   -0.0213 H   0  0  0  0  0  0  0  0  0  0  0  0
   -3.6807   -0.3272    0.7961 H   0  0  0  0  0  0  0  0  0  0  0  0
  1  2  1  0
  2  3  1  0
  3  4  2  0
  3  5  1  0
  5  6  2  0
  6  7  1  0
  7  8  2  0
  8  9  1  0
  9 10  2  0
 10 11  1  0
 11 12  1  0
 11 13  1  0
 10 14  1  0
 14 15  2  0
 15 16  1  0
 16 17  1  0
 17 18  1  0
 18 19  2  0
 19 20  1  0
 20 21  2  0
 21 22  1  0
 22 23  2  0
 16  5  1  0
 23 18  1  0
 15  7  1  0
  1 24  1  0
  1 25  1  0
  1 26  1  0
  8 27  1  0
 12 28  1  0
 12 29  1  0
 12 30  1  0
 13 31  1  0
 13 32  1  0
 13 33  1  0
 17 34  1  0
 17 35  1  0
 19 36  1  0
 20 37  1  0
 21 38  1  0
 22 39  1  0
 23 40  1  0
M  END
