
     RDKit          3D

 76 83  0  0  0  0  0  0  0  0999 V2000
   -1.9745   -3.7290   -0.8881 C   0  0  0  0  0  0  0  0  0  0  0  0
   -2.0778   -2.2912   -0.5307 C   0  0  0  0  0  0  0  0  0  0  0  0
   -3.2286   -1.7265   -0.1953 N   0  0  0  0  0  4  0  0  0  0  0  0
   -2.9842   -0.3673    0.0825 C   0  0  0  0  0  0  0  0  0  0  0  0
   -3.9685    0.4449    0.4476 C   0  0  0  0  0  0  0  0  0  0  0  0
   -3.6590    1.7497    0.7011 O   0  0  0  0  0  0  0  0  0  0  0  0
   -3.7203    2.3779    1.9103 C   0  0  0  0  0  0  0  0  0  0  0  0
   -3.3831    3.7027    2.0491 C   0  0  0  0  0  0  0  0  0  0  0  0
   -3.4461    4.3469    3.2889 C   0  0  0  0  0  0  0  0  0  0  0  0
   -3.8572    3.6233    4.3851 C   0  0  0  0  0  0  0  0  0  0  0  0
   -4.1938    2.3022    4.2485 C   0  0  0  0  0  0  0  0  0  0  0  0
   -4.1262    1.6864    3.0252 C   0  0  0  0  0  0  0  0  0  0  0  0
   -5.3443   -0.0320    0.5775 C   0  0  0  0  0  0  0  0  0  0  0  0
   -6.5301    0.6060    0.9380 C   0  0  0  0  0  0  0  0  0  0  0  0
   -7.5327   -0.3247    0.8953 C   0  0  0  0  0  0  0  0  0  0  0  0
   -6.9943   -1.5267    0.5162 C   0  0  0  0  0  0  0  0  0  0  0  0
   -7.6880   -2.8383    0.3291 C   0  0  0  0  0  0  0  0  0  0  0  0
   -5.6534   -1.3023    0.3320 N   0  0  0  0  0  0  0  0  0  0  0  0
   -4.6187   -2.3190   -0.0916 B   0  0  0  0  0  4  0  0  0  0  0  0
   -4.5912   -3.3305    0.9934 F   0  0  0  0  0  0  0  0  0  0  0  0
   -5.0059   -2.9682   -1.3441 F   0  0  0  0  0  0  0  0  0  0  0  0
   -1.5484   -0.1738   -0.1241 C   0  0  0  0  0  0  0  0  0  0  0  0
   -0.9995   -1.3459   -0.4971 C   0  0  0  0  0  0  0  0  0  0  0  0
    0.4168   -1.5524   -0.7947 C   0  0  0  0  0  0  0  0  0  0  0  0
    1.3881   -0.5364   -0.7263 C   0  0  0  0  0  0  0  0  0  0  0  0
    2.6080   -1.0885   -1.0709 C   0  0  0  0  0  0  0  0  0  0  0  0
    2.4130   -2.3964   -1.3443 N   0  0  0  0  0  0  0  0  0  0  0  0
    1.0990   -2.6691   -1.1775 C   0  0  0  0  0  0  0  0  0  0  0  0
    3.5478   -3.3221   -1.7566 B   0  0  0  0  0  4  0  0  0  0  0  0
    3.5619   -4.4633   -0.8395 F   0  0  0  0  0  0  0  0  0  0  0  0
    3.2007   -3.8370   -3.0919 F   0  0  0  0  0  0  0  0  0  0  0  0
    4.8791   -2.6222   -1.8142 N   0  0  0  0  0  4  0  0  0  0  0  0
    6.0450   -3.1189   -2.1291 C   0  0  0  0  0  0  0  0  0  0  0  0
    7.0400   -2.0587   -2.0447 C   0  0  0  0  0  0  0  0  0  0  0  0
    6.4493   -0.9342   -1.6776 C   0  0  0  0  0  0  0  0  0  0  0  0
    5.0135   -1.2540   -1.5113 C   0  0  0  0  0  0  0  0  0  0  0  0
    3.9731   -0.5229   -1.1668 C   0  0  0  0  0  0  0  0  0  0  0  0
    4.1710    0.8726   -0.8218 C   0  0  0  0  0  0  0  0  0  0  0  0
    3.5474    1.8523   -1.5424 C   0  0  0  0  0  0  0  0  0  0  0  0
    2.7269    1.4995   -2.7218 C   0  0  0  0  0  0  0  0  0  0  0  0
    3.7123    3.1954   -1.1696 C   0  0  0  0  0  0  0  0  0  0  0  0
    4.4930    3.5375   -0.0905 C   0  0  0  0  0  0  0  0  0  0  0  0
    4.6551    4.9860    0.2892 C   0  0  0  0  0  0  0  0  0  0  0  0
    5.1152    2.5396    0.6254 C   0  0  0  0  0  0  0  0  0  0  0  0
    4.9523    1.1962    0.2568 C   0  0  0  0  0  0  0  0  0  0  0  0
    5.6304    0.1751    1.0939 C   0  0  0  0  0  0  0  0  0  0  0  0
   -1.5999   -3.8178   -1.9189 H   0  0  0  0  0  0  0  0  0  0  0  0
   -2.9754   -4.2469   -0.7849 H   0  0  0  0  0  0  0  0  0  0  0  0
   -1.2929   -4.2568   -0.1914 H   0  0  0  0  0  0  0  0  0  0  0  0
   -3.0576    4.2821    1.1916 H   0  0  0  0  0  0  0  0  0  0  0  0
   -3.1778    5.3953    3.3907 H   0  0  0  0  0  0  0  0  0  0  0  0
   -3.8934    4.1560    5.3288 H   0  0  0  0  0  0  0  0  0  0  0  0
   -4.5177    1.7354    5.1160 H   0  0  0  0  0  0  0  0  0  0  0  0
   -4.3931    0.6270    2.8984 H   0  0  0  0  0  0  0  0  0  0  0  0
   -6.6366    1.6407    1.2011 H   0  0  0  0  0  0  0  0  0  0  0  0
   -8.5917   -0.2121    1.1094 H   0  0  0  0  0  0  0  0  0  0  0  0
   -7.1474   -3.4669   -0.4318 H   0  0  0  0  0  0  0  0  0  0  0  0
   -8.7117   -2.6292   -0.0260 H   0  0  0  0  0  0  0  0  0  0  0  0
   -7.7162   -3.3919    1.2730 H   0  0  0  0  0  0  0  0  0  0  0  0
   -1.0007    0.7461   -0.0032 H   0  0  0  0  0  0  0  0  0  0  0  0
    1.1884    0.4926   -0.4489 H   0  0  0  0  0  0  0  0  0  0  0  0
    0.6748   -3.6405   -1.3315 H   0  0  0  0  0  0  0  0  0  0  0  0
    6.2822   -4.1417   -2.4122 H   0  0  0  0  0  0  0  0  0  0  0  0
    8.1024   -2.1973   -2.2569 H   0  0  0  0  0  0  0  0  0  0  0  0
    6.8815    0.0414   -1.5185 H   0  0  0  0  0  0  0  0  0  0  0  0
    1.6523    1.6862   -2.5017 H   0  0  0  0  0  0  0  0  0  0  0  0
    3.0327    2.1277   -3.6114 H   0  0  0  0  0  0  0  0  0  0  0  0
    2.9055    0.4363   -2.9634 H   0  0  0  0  0  0  0  0  0  0  0  0
    3.2140    3.9470   -1.7476 H   0  0  0  0  0  0  0  0  0  0  0  0
    3.6667    5.4869    0.3830 H   0  0  0  0  0  0  0  0  0  0  0  0
    5.2073    5.5357   -0.5056 H   0  0  0  0  0  0  0  0  0  0  0  0
    5.2361    5.0110    1.2223 H   0  0  0  0  0  0  0  0  0  0  0  0
    5.7336    2.8090    1.4797 H   0  0  0  0  0  0  0  0  0  0  0  0
    5.4570    0.4698    2.1690 H   0  0  0  0  0  0  0  0  0  0  0  0
    5.2394   -0.8276    0.9079 H   0  0  0  0  0  0  0  0  0  0  0  0
    6.7247    0.1593    0.9478 H   0  0  0  0  0  0  0  0  0  0  0  0
  1  2  1  0
  2  3  2  0
  3  4  1  0
  4  5  2  0
  5  6  1  0
  6  7  1  0
  7  8  2  0
  8  9  1  0
  9 10  2  0
 10 11  1  0
 11 12  2  0
  5 13  1  0
 13 14  2  0
 14 15  1  0
 15 16  2  0
 16 17  1  0
 16 18  1  0
 18 19  1  0
 19 20  1  0
 19 21  1  0
  4 22  1  0
 22 23  2  0
 23 24  1  0
 24 25  1  0
 25 26  2  0
 26 27  1  0
 27 28  1  0
 27 29  1  0
 29 30  1  0
 29 31  1  0
 29 32  1  0
 32 33  2  0
 33 34  1  0
 34 35  2  0
 35 36  1  0
 36 37  2  0
 37 38  1  0
 38 39  2  0
 39 40  1  0
 39 41  1  0
 41 42  2  0
 42 43  1  0
 42 44  1  0
 44 45  2  0
 45 46  1  0
 23  2  1  0
 28 24  2  0
 36 32  1  0
 45 38  1  0
 19  3  1  0
 37 26  1  0
 12  7  1  0
 18 13  1  0
  1 47  1  0
  1 48  1  0
  1 49  1  0
  8 50  1  0
  9 51  1  0
 10 52  1  0
 11 53  1  0
 12 54  1  0
 14 55  1  0
 15 56  1  0
 17 57  1  0
 17 58  1  0
 17 59  1  0
 22 60  1  0
 25 61  1  0
 28 62  1  0
 33 63  1  0
 34 64  1  0
 35 65  1  0
 40 66  1  0
 40 67  1  0
 40 68  1  0
 41 69  1  0
 43 70  1  0
 43 71  1  0
 43 72  1  0
 44 73  1  0
 46 74  1  0
 46 75  1  0
 46 76  1  0
M  CHG  4   3   1  19  -1  29  -1  32   1
M  END
