
     RDKit          3D

 51 55  0  0  0  0  0  0  0  0999 V2000
    4.4577    0.8212   -0.1622 C   0  0  0  0  0  0  0  0  0  0  0  0
    4.3166   -0.4147   -0.5870 C   0  0  0  0  0  0  0  0  0  0  0  0
    3.0107   -1.0985   -0.7084 C   0  0  0  0  0  0  0  0  0  0  0  0
    3.0744   -2.4128   -1.1799 C   0  0  0  0  0  0  0  0  0  0  0  0
    1.9334   -3.1572   -1.3380 C   0  0  0  0  0  0  0  0  0  0  0  0
    0.7248   -2.5342   -1.0056 C   0  0  0  0  0  0  0  0  0  0  0  0
    0.6363   -1.2466   -0.5413 C   0  0  0  0  0  0  0  0  0  0  0  0
   -0.6344   -0.5961   -0.1960 C   0  0  0  0  0  0  0  0  0  0  0  0
   -1.8213   -1.1349   -0.2861 C   0  0  0  0  0  0  0  0  0  0  0  0
   -3.1000   -0.5339    0.0326 C   0  0  0  0  0  0  0  0  0  0  0  0
   -3.3508    0.7928   -0.0824 C   0  0  0  0  0  0  0  0  0  0  0  0
   -2.5012    1.6381   -0.7560 C   0  0  0  0  0  0  0  0  0  0  0  0
   -2.7553    3.0076   -0.9315 C   0  0  0  0  0  0  0  0  0  0  0  0
   -3.9113    3.5202   -0.4053 C   0  0  0  0  0  0  0  0  0  0  0  0
   -4.7763    2.6977    0.2666 C   0  0  0  0  0  0  0  0  0  0  0  0
   -4.5284    1.3534    0.4402 C   0  0  0  0  0  0  0  0  0  0  0  0
   -5.4574    0.5570    1.0751 C   0  0  0  0  0  0  0  0  0  0  0  0
   -5.2293   -0.7905    1.1975 C   0  0  0  0  0  0  0  0  0  0  0  0
   -6.1339   -1.6162    1.8259 C   0  0  0  0  0  0  0  0  0  0  0  0
   -5.8982   -2.9685    1.9508 C   0  0  0  0  0  0  0  0  0  0  0  0
   -4.7438   -3.5172    1.4440 C   0  0  0  0  0  0  0  0  0  0  0  0
   -3.8095   -2.6837    0.7984 C   0  0  0  0  0  0  0  0  0  0  0  0
   -4.0570   -1.3413    0.6810 C   0  0  0  0  0  0  0  0  0  0  0  0
    1.8320   -0.5328   -0.3991 C   0  0  0  0  0  0  0  0  0  0  0  0
    5.7403    1.4813   -0.0471 C   0  0  0  0  0  0  0  0  0  0  0  0
    5.7841    2.8009    0.4163 C   0  0  0  0  0  0  0  0  0  0  0  0
    6.9817    3.4522    0.5363 C   0  0  0  0  0  0  0  0  0  0  0  0
    8.1445    2.8600    0.2190 N   0  0  0  0  0  0  0  0  0  0  0  0
    8.1616    1.6085   -0.2259 C   0  0  0  0  0  0  0  0  0  0  0  0
    6.9609    0.9376   -0.3526 C   0  0  0  0  0  0  0  0  0  0  0  0
    3.5536    1.3706    0.1160 H   0  0  0  0  0  0  0  0  0  0  0  0
    5.2333   -0.9273   -0.8534 H   0  0  0  0  0  0  0  0  0  0  0  0
    4.0160   -2.8857   -1.4344 H   0  0  0  0  0  0  0  0  0  0  0  0
    1.9146   -4.1729   -1.6961 H   0  0  0  0  0  0  0  0  0  0  0  0
   -0.1990   -3.0985   -1.1193 H   0  0  0  0  0  0  0  0  0  0  0  0
   -0.5459    0.3927    0.2305 H   0  0  0  0  0  0  0  0  0  0  0  0
   -1.8023   -2.1745   -0.6863 H   0  0  0  0  0  0  0  0  0  0  0  0
   -1.6247    1.2611   -1.2437 H   0  0  0  0  0  0  0  0  0  0  0  0
   -2.0718    3.6413   -1.4597 H   0  0  0  0  0  0  0  0  0  0  0  0
   -4.1194    4.5917   -0.5363 H   0  0  0  0  0  0  0  0  0  0  0  0
   -5.7000    3.1113    0.6847 H   0  0  0  0  0  0  0  0  0  0  0  0
   -6.3605    0.9969    1.4733 H   0  0  0  0  0  0  0  0  0  0  0  0
   -7.0462   -1.1556    2.2216 H   0  0  0  0  0  0  0  0  0  0  0  0
   -6.6521   -3.5626    2.4572 H   0  0  0  0  0  0  0  0  0  0  0  0
   -4.5363   -4.5704    1.5290 H   0  0  0  0  0  0  0  0  0  0  0  0
   -2.9299   -3.1497    0.4275 H   0  0  0  0  0  0  0  0  0  0  0  0
    1.7843    0.4773   -0.0371 H   0  0  0  0  0  0  0  0  0  0  0  0
    4.8793    3.3293    0.6872 H   0  0  0  0  0  0  0  0  0  0  0  0
    7.0305    4.4888    0.8990 H   0  0  0  0  0  0  0  0  0  0  0  0
    9.1129    1.1598   -0.4729 H   0  0  0  0  0  0  0  0  0  0  0  0
    7.0126   -0.0728   -0.7153 H   0  0  0  0  0  0  0  0  0  0  0  0
  1  2  2  0
  2  3  1  0
  3  4  2  0
  4  5  1  0
  5  6  2  0
  6  7  1  0
  7  8  1  0
  8  9  2  0
  9 10  1  0
 10 11  1  0
 11 12  2  0
 12 13  1  0
 13 14  2  0
 14 15  1  0
 15 16  2  0
 16 17  1  0
 17 18  2  0
 18 19  1  0
 19 20  2  0
 20 21  1  0
 21 22  2  0
 22 23  1  0
  7 24  2  0
  1 25  1  0
 25 26  2  0
 26 27  1  0
 27 28  2  0
 28 29  1  0
 29 30  2  0
 24  3  1  0
 30 25  1  0
 23 10  2  0
 16 11  1  0
 23 18  1  0
  1 31  1  0
  2 32  1  0
  4 33  1  0
  5 34  1  0
  6 35  1  0
  8 36  1  0
  9 37  1  0
 12 38  1  0
 13 39  1  0
 14 40  1  0
 15 41  1  0
 17 42  1  0
 19 43  1  0
 20 44  1  0
 21 45  1  0
 22 46  1  0
 24 47  1  0
 26 48  1  0
 27 49  1  0
 29 50  1  0
 30 51  1  0
M  END
