
     RDKit          3D

 27 27  0  0  0  0  0  0  0  0999 V2000
    4.7164    0.5067   -0.3783 C   0  0  0  0  0  0  0  0  0  0  0  0
    3.3600   -0.0596   -0.1598 C   0  0  0  0  0  0  0  0  0  0  0  0
    2.2584    0.6584   -0.2962 C   0  0  0  0  0  0  0  0  0  0  0  0
    0.9157    0.1313   -0.0888 C   0  0  0  0  0  0  0  0  0  0  0  0
    0.6649   -1.1705    0.2705 C   0  0  0  0  0  0  0  0  0  0  0  0
   -0.6431   -1.6355    0.4596 C   0  0  0  0  0  0  0  0  0  0  0  0
   -1.7186   -0.8059    0.2923 C   0  0  0  0  0  0  0  0  0  0  0  0
   -3.0323   -1.2043    0.4640 O   0  0  0  0  0  0  0  0  0  0  0  0
   -3.4392   -2.4896    0.8266 C   0  0  0  0  0  0  0  0  0  0  0  0
   -1.4724    0.5025   -0.0685 C   0  0  0  0  0  0  0  0  0  0  0  0
   -2.5520    1.3537   -0.2413 O   0  0  0  0  0  0  0  0  0  0  0  0
   -2.4485    2.6970   -0.6043 C   0  0  0  0  0  0  0  0  0  0  0  0
   -0.1753    0.9586   -0.2547 C   0  0  0  0  0  0  0  0  0  0  0  0
    4.7330    1.3550   -1.0621 H   0  0  0  0  0  0  0  0  0  0  0  0
    5.1011    0.8067    0.6273 H   0  0  0  0  0  0  0  0  0  0  0  0
    5.3981   -0.2987   -0.7663 H   0  0  0  0  0  0  0  0  0  0  0  0
    3.3098   -1.0956    0.1188 H   0  0  0  0  0  0  0  0  0  0  0  0
    2.4351    1.6916   -0.5803 H   0  0  0  0  0  0  0  0  0  0  0  0
    1.4791   -1.8720    0.4167 H   0  0  0  0  0  0  0  0  0  0  0  0
   -0.8212   -2.6611    0.7417 H   0  0  0  0  0  0  0  0  0  0  0  0
   -2.9985   -3.2916    0.2169 H   0  0  0  0  0  0  0  0  0  0  0  0
   -3.1035   -2.7012    1.8843 H   0  0  0  0  0  0  0  0  0  0  0  0
   -4.5552   -2.5067    0.8056 H   0  0  0  0  0  0  0  0  0  0  0  0
   -3.3927    3.2051   -0.2556 H   0  0  0  0  0  0  0  0  0  0  0  0
   -2.4551    2.7792   -1.7100 H   0  0  0  0  0  0  0  0  0  0  0  0
   -1.5882    3.1622   -0.1206 H   0  0  0  0  0  0  0  0  0  0  0  0
    0.0241    1.9841   -0.5378 H   0  0  0  0  0  0  0  0  0  0  0  0
  1  2  1  0
  2  3  2  0
  3  4  1  0
  4  5  2  0
  5  6  1  0
  6  7  2  0
  7  8  1  0
  8  9  1  0
  7 10  1  0
 10 11  1  0
 11 12  1  0
 10 13  2  0
 13  4  1  0
  1 14  1  0
  1 15  1  0
  1 16  1  0
  2 17  1  0
  3 18  1  0
  5 19  1  0
  6 20  1  0
  9 21  1  0
  9 22  1  0
  9 23  1  0
 12 24  1  0
 12 25  1  0
 12 26  1  0
 13 27  1  0
M  END
