
     RDKit          3D

 66 71  0  0  0  0  0  0  0  0999 V2000
  -12.3015   -0.6506   -1.0642 C   0  0  0  0  0  0  0  0  0  0  0  0
  -11.6871    0.3703   -0.2058 N   0  0  0  0  0  0  0  0  0  0  0  0
  -12.5755    1.3720    0.3752 C   0  0  0  0  0  0  0  0  0  0  0  0
  -10.2996    0.3706   -0.0340 C   0  0  0  0  0  0  0  0  0  0  0  0
   -9.6849    1.4009    0.6818 C   0  0  0  0  0  0  0  0  0  0  0  0
   -8.2926    1.4238    0.7962 C   0  0  0  0  0  0  0  0  0  0  0  0
   -7.5002    0.5064    0.2538 C   0  0  0  0  0  0  0  0  0  0  0  0
   -6.1075    0.4785    0.1622 C   0  0  0  0  0  0  0  0  0  0  0  0
   -4.7279    0.4290    0.0813 C   0  0  0  0  0  0  0  0  0  0  0  0
   -3.4513    0.4055    0.0060 C   0  0  0  0  0  0  0  0  0  0  0  0
   -2.6987    0.8761   -1.0521 C   0  0  0  0  0  0  0  0  0  0  0  0
   -1.2810    0.9026   -1.0280 C   0  0  0  0  0  0  0  0  0  0  0  0
   -0.5349    1.3676   -2.0692 C   0  0  0  0  0  0  0  0  0  0  0  0
    0.8264    1.3856   -2.0035 C   0  0  0  0  0  0  0  0  0  0  0  0
    1.5066    0.9317   -0.8766 C   0  0  0  0  0  0  0  0  0  0  0  0
    2.9011    0.9555   -0.7934 C   0  0  0  0  0  0  0  0  0  0  0  0
    3.5383    0.5074    0.3359 C   0  0  0  0  0  0  0  0  0  0  0  0
    5.0132    0.3266    0.3255 C   0  0  0  0  0  0  0  0  0  0  0  0
    6.2337    0.1725    0.3357 C   0  0  0  0  0  0  0  0  0  0  0  0
    7.6235    0.0066    0.3503 C   0  0  0  0  0  0  0  0  0  0  0  0
    8.3930   -0.0642    1.5238 C   0  0  0  0  0  0  0  0  0  0  0  0
    9.7127   -0.4349    1.3265 C   0  0  0  0  0  0  0  0  0  0  0  0
   10.3552   -0.7226    0.1671 C   0  0  0  0  0  0  0  0  0  0  0  0
   11.6069   -1.3439    0.0040 N   0  0  0  0  0  0  0  0  0  0  0  0
   12.8783   -0.7847    0.0502 C   0  0  0  0  0  0  0  0  0  0  0  0
   11.4275   -2.8335   -0.2701 C   0  0  0  0  0  0  0  0  0  0  0  0
    9.5270   -0.6173   -0.9978 C   0  0  0  0  0  0  0  0  0  0  0  0
    8.2321   -0.2668   -0.8110 C   0  0  0  0  0  0  0  0  0  0  0  0
    2.8179    0.0311    1.3971 C   0  0  0  0  0  0  0  0  0  0  0  0
    1.4067   -0.0039    1.3263 C   0  0  0  0  0  0  0  0  0  0  0  0
    0.6737   -0.4701    2.3800 C   0  0  0  0  0  0  0  0  0  0  0  0
   -0.7063   -0.4855    2.3230 C   0  0  0  0  0  0  0  0  0  0  0  0
   -1.3435   -0.0176    1.1664 C   0  0  0  0  0  0  0  0  0  0  0  0
   -2.6863   -0.0492    1.1416 C   0  0  0  0  0  0  0  0  0  0  0  0
   -0.6227    0.4599    0.0793 C   0  0  0  0  0  0  0  0  0  0  0  0
    0.7677    0.4620    0.1798 C   0  0  0  0  0  0  0  0  0  0  0  0
   -8.1713   -0.5689   -0.4803 C   0  0  0  0  0  0  0  0  0  0  0  0
   -9.5178   -0.5900   -0.5940 C   0  0  0  0  0  0  0  0  0  0  0  0
  -11.6363   -0.8871   -1.9412 H   0  0  0  0  0  0  0  0  0  0  0  0
  -12.4270   -1.5693   -0.4190 H   0  0  0  0  0  0  0  0  0  0  0  0
  -13.1907   -0.2388   -1.5022 H   0  0  0  0  0  0  0  0  0  0  0  0
  -12.4720    1.5653    1.4472 H   0  0  0  0  0  0  0  0  0  0  0  0
  -12.5270    2.3127   -0.2412 H   0  0  0  0  0  0  0  0  0  0  0  0
  -13.6194    1.0030    0.2149 H   0  0  0  0  0  0  0  0  0  0  0  0
  -10.2591    2.1573    1.1311 H   0  0  0  0  0  0  0  0  0  0  0  0
   -7.7727    2.2425    1.3558 H   0  0  0  0  0  0  0  0  0  0  0  0
   -3.1730    1.2426   -1.9414 H   0  0  0  0  0  0  0  0  0  0  0  0
   -1.0417    1.7483   -2.9545 H   0  0  0  0  0  0  0  0  0  0  0  0
    1.3814    1.8000   -2.8679 H   0  0  0  0  0  0  0  0  0  0  0  0
    3.4475    1.3244   -1.6304 H   0  0  0  0  0  0  0  0  0  0  0  0
    7.9691    0.1502    2.4534 H   0  0  0  0  0  0  0  0  0  0  0  0
   10.2932   -0.4873    2.2616 H   0  0  0  0  0  0  0  0  0  0  0  0
   13.6485   -1.6431   -0.0639 H   0  0  0  0  0  0  0  0  0  0  0  0
   13.0975   -0.2649    1.0350 H   0  0  0  0  0  0  0  0  0  0  0  0
   13.0952   -0.0811   -0.7994 H   0  0  0  0  0  0  0  0  0  0  0  0
   10.9885   -2.9399   -1.2893 H   0  0  0  0  0  0  0  0  0  0  0  0
   12.3293   -3.3723   -0.0950 H   0  0  0  0  0  0  0  0  0  0  0  0
   10.6628   -3.1653    0.4520 H   0  0  0  0  0  0  0  0  0  0  0  0
    9.9636   -0.8199   -1.9406 H   0  0  0  0  0  0  0  0  0  0  0  0
    7.5854   -0.2196   -1.7196 H   0  0  0  0  0  0  0  0  0  0  0  0
    3.2445   -0.3094    2.2891 H   0  0  0  0  0  0  0  0  0  0  0  0
    1.1811   -0.7976    3.2569 H   0  0  0  0  0  0  0  0  0  0  0  0
   -1.2641   -0.8493    3.1389 H   0  0  0  0  0  0  0  0  0  0  0  0
   -3.2676   -0.4105    1.9712 H   0  0  0  0  0  0  0  0  0  0  0  0
   -7.5256   -1.3044   -0.8997 H   0  0  0  0  0  0  0  0  0  0  0  0
   -9.9623   -1.4249   -1.1470 H   0  0  0  0  0  0  0  0  0  0  0  0
  1  2  1  0
  2  3  1  0
  2  4  1  0
  4  5  2  0
  5  6  1  0
  6  7  2  0
  7  8  1  0
  8  9  3  0
  9 10  1  0
 10 11  2  0
 11 12  1  0
 12 13  2  0
 13 14  1  0
 14 15  2  0
 15 16  1  0
 16 17  2  0
 17 18  1  0
 18 19  3  0
 19 20  1  0
 20 21  2  0
 21 22  1  0
 22 23  2  0
 23 24  1  0
 24 25  1  0
 24 26  1  0
 23 27  1  0
 27 28  2  0
 17 29  1  0
 29 30  2  0
 30 31  1  0
 31 32  2  0
 32 33  1  0
 33 34  2  0
 33 35  1  0
 35 36  2  0
  7 37  1  0
 37 38  2  0
 38  4  1  0
 34 10  1  0
 35 12  1  0
 36 15  1  0
 28 20  1  0
 36 30  1  0
  1 39  1  0
  1 40  1  0
  1 41  1  0
  3 42  1  0
  3 43  1  0
  3 44  1  0
  5 45  1  0
  6 46  1  0
 11 47  1  0
 13 48  1  0
 14 49  1  0
 16 50  1  0
 21 51  1  0
 22 52  1  0
 25 53  1  0
 25 54  1  0
 25 55  1  0
 26 56  1  0
 26 57  1  0
 26 58  1  0
 27 59  1  0
 28 60  1  0
 29 61  1  0
 31 62  1  0
 32 63  1  0
 34 64  1  0
 37 65  1  0
 38 66  1  0
M  END
