
     RDKit          3D

 94100  0  0  0  0  0  0  0  0999 V2000
   12.4917   -1.8291    2.1973 C   0  0  0  0  0  0  0  0  0  0  0  0
   12.2720   -0.3384    2.3064 C   0  0  0  0  0  0  0  0  0  0  0  0
   12.6321    0.2626    0.9755 C   0  0  0  0  0  0  0  0  0  0  0  0
   11.7914   -0.2878   -0.1510 C   0  0  0  0  0  0  0  0  0  0  0  0
   10.3191    0.0005    0.0695 C   0  0  0  0  0  0  0  0  0  0  0  0
    9.5523   -0.5814   -1.0984 C   0  0  0  0  0  0  0  0  0  0  0  0
    8.0593   -0.3376   -0.9407 C   0  0  0  0  0  0  0  0  0  0  0  0
    7.7018    1.1136   -0.8871 C   0  0  0  0  0  0  0  0  0  0  0  0
    6.2170    1.2683   -0.7108 C   0  0  0  0  0  0  0  0  0  0  0  0
    5.4774    0.6623   -1.8467 C   0  0  0  0  0  0  0  0  0  0  0  0
    3.9759    0.8360   -1.6657 C   0  0  0  0  0  0  0  0  0  0  0  0
    3.5710    0.1709   -0.3968 C   0  0  0  0  0  0  0  0  0  0  0  0
    2.0416    0.2936   -0.1676 C   0  0  0  0  0  0  0  0  0  0  0  0
    1.6735   -0.3760    1.0971 C   0  0  0  0  0  0  0  0  0  0  0  0
    0.2488   -0.4213    1.5079 C   0  0  0  0  0  0  0  0  0  0  0  0
   -0.5054    0.7823    1.7988 C   0  0  0  0  0  0  0  0  0  0  0  0
   -0.7526    1.8719    0.8565 C   0  0  0  0  0  0  0  0  0  0  0  0
   -1.4508    1.6680   -0.4093 C   0  0  0  0  0  0  0  0  0  0  0  0
   -2.7922    1.1890   -0.4197 N   0  0  0  0  0  0  0  0  0  0  0  0
   -3.2400   -0.1252   -0.5276 C   0  0  0  0  0  0  0  0  0  0  0  0
   -2.4217   -1.0363   -0.6671 O   0  0  0  0  0  0  0  0  0  0  0  0
   -4.6692   -0.4979   -0.4861 C   0  0  0  0  0  0  0  0  0  0  0  0
   -5.0273   -1.8178   -0.5960 C   0  0  0  0  0  0  0  0  0  0  0  0
   -6.3650   -2.2194   -0.5592 C   0  0  0  0  0  0  0  0  0  0  0  0
   -7.3332   -1.2741   -0.4107 C   0  0  0  0  0  0  0  0  0  0  0  0
   -8.6594   -1.6676   -0.3709 C   0  0  0  0  0  0  0  0  0  0  0  0
   -9.0294   -2.9833   -0.4772 C   0  0  0  0  0  0  0  0  0  0  0  0
  -10.3559   -3.3284   -0.4304 C   0  0  0  0  0  0  0  0  0  0  0  0
  -11.3150   -2.3404   -0.2750 C   0  0  0  0  0  0  0  0  0  0  0  0
  -10.9804   -0.9881   -0.1628 C   0  0  0  0  0  0  0  0  0  0  0  0
  -11.9543   -0.0321   -0.0082 C   0  0  0  0  0  0  0  0  0  0  0  0
  -11.5665    1.2792    0.0981 C   0  0  0  0  0  0  0  0  0  0  0  0
  -10.2413    1.6484    0.0535 C   0  0  0  0  0  0  0  0  0  0  0  0
   -9.2788    0.6783   -0.1017 C   0  0  0  0  0  0  0  0  0  0  0  0
   -7.9314    1.0597   -0.1440 C   0  0  0  0  0  0  0  0  0  0  0  0
   -7.5629    2.3751   -0.0330 C   0  0  0  0  0  0  0  0  0  0  0  0
   -6.2294    2.7225   -0.0748 C   0  0  0  0  0  0  0  0  0  0  0  0
   -5.2478    1.7960   -0.2242 C   0  0  0  0  0  0  0  0  0  0  0  0
   -5.6393    0.4729   -0.3351 C   0  0  0  0  0  0  0  0  0  0  0  0
   -6.9656    0.0572   -0.3004 C   0  0  0  0  0  0  0  0  0  0  0  0
   -3.8218    2.1754   -0.2647 C   0  0  0  0  0  0  0  0  0  0  0  0
   -3.5414    3.3961   -0.1583 O   0  0  0  0  0  0  0  0  0  0  0  0
   -9.6312   -0.6649   -0.2133 C   0  0  0  0  0  0  0  0  0  0  0  0
  -13.3884   -0.3863    0.0458 C   0  0  0  0  0  0  0  0  0  0  0  0
  -14.2348    0.5297    0.1886 O   0  0  0  0  0  0  0  0  0  0  0  0
  -13.7340   -1.7537   -0.0674 N   0  0  0  0  0  0  0  0  0  0  0  0
  -12.7147   -2.7513   -0.2288 C   0  0  0  0  0  0  0  0  0  0  0  0
  -13.0008   -3.9654   -0.3304 O   0  0  0  0  0  0  0  0  0  0  0  0
   12.7709   -2.2872    3.1607 H   0  0  0  0  0  0  0  0  0  0  0  0
   13.3428   -1.9917    1.4726 H   0  0  0  0  0  0  0  0  0  0  0  0
   11.6265   -2.3352    1.7329 H   0  0  0  0  0  0  0  0  0  0  0  0
   12.8923    0.0886    3.1269 H   0  0  0  0  0  0  0  0  0  0  0  0
   11.2253   -0.1392    2.5306 H   0  0  0  0  0  0  0  0  0  0  0  0
   13.7042    0.0508    0.7666 H   0  0  0  0  0  0  0  0  0  0  0  0
   12.5489    1.3686    1.0399 H   0  0  0  0  0  0  0  0  0  0  0  0
   11.8721   -1.4129   -0.1288 H   0  0  0  0  0  0  0  0  0  0  0  0
   12.0957    0.1104   -1.1348 H   0  0  0  0  0  0  0  0  0  0  0  0
    9.9748   -0.5079    1.0025 H   0  0  0  0  0  0  0  0  0  0  0  0
   10.1625    1.0928    0.1410 H   0  0  0  0  0  0  0  0  0  0  0  0
    9.7401   -1.6699   -1.1552 H   0  0  0  0  0  0  0  0  0  0  0  0
    9.8987   -0.1025   -2.0324 H   0  0  0  0  0  0  0  0  0  0  0  0
    7.7499   -0.7790    0.0484 H   0  0  0  0  0  0  0  0  0  0  0  0
    7.5603   -0.9342   -1.7043 H   0  0  0  0  0  0  0  0  0  0  0  0
    8.0571    1.6583   -1.7918 H   0  0  0  0  0  0  0  0  0  0  0  0
    8.2099    1.5384    0.0148 H   0  0  0  0  0  0  0  0  0  0  0  0
    5.9249    2.3267   -0.5312 H   0  0  0  0  0  0  0  0  0  0  0  0
    5.9865    0.7517    0.2683 H   0  0  0  0  0  0  0  0  0  0  0  0
    5.7392   -0.3714   -2.0767 H   0  0  0  0  0  0  0  0  0  0  0  0
    5.7156    1.2520   -2.7767 H   0  0  0  0  0  0  0  0  0  0  0  0
    3.8033    1.9162   -1.5881 H   0  0  0  0  0  0  0  0  0  0  0  0
    3.4219    0.4289   -2.5335 H   0  0  0  0  0  0  0  0  0  0  0  0
    3.9961    0.7126    0.4878 H   0  0  0  0  0  0  0  0  0  0  0  0
    3.9085   -0.8602   -0.3705 H   0  0  0  0  0  0  0  0  0  0  0  0
    1.8135    1.3332   -0.3034 H   0  0  0  0  0  0  0  0  0  0  0  0
    1.6066   -0.3210   -1.0108 H   0  0  0  0  0  0  0  0  0  0  0  0
    2.2130    0.2038    1.9228 H   0  0  0  0  0  0  0  0  0  0  0  0
    2.0940   -1.4158    1.1732 H   0  0  0  0  0  0  0  0  0  0  0  0
   -0.2983   -1.1922    0.8898 H   0  0  0  0  0  0  0  0  0  0  0  0
    0.2902   -1.0081    2.5142 H   0  0  0  0  0  0  0  0  0  0  0  0
   -1.5491    0.5092    2.2165 H   0  0  0  0  0  0  0  0  0  0  0  0
   -0.0484    1.1885    2.7802 H   0  0  0  0  0  0  0  0  0  0  0  0
    0.1823    2.4460    0.6964 H   0  0  0  0  0  0  0  0  0  0  0  0
   -1.3597    2.7202    1.4075 H   0  0  0  0  0  0  0  0  0  0  0  0
   -0.8143    1.0370   -1.1095 H   0  0  0  0  0  0  0  0  0  0  0  0
   -1.4650    2.6482   -0.9535 H   0  0  0  0  0  0  0  0  0  0  0  0
   -4.2380   -2.5709   -0.7147 H   0  0  0  0  0  0  0  0  0  0  0  0
   -6.5636   -3.2622   -0.6506 H   0  0  0  0  0  0  0  0  0  0  0  0
   -8.3344   -3.7813   -0.5967 H   0  0  0  0  0  0  0  0  0  0  0  0
  -10.6863   -4.3729   -0.5124 H   0  0  0  0  0  0  0  0  0  0  0  0
  -12.3382    2.0434    0.2210 H   0  0  0  0  0  0  0  0  0  0  0  0
   -9.9773    2.6861    0.1399 H   0  0  0  0  0  0  0  0  0  0  0  0
   -8.2494    3.1816    0.0879 H   0  0  0  0  0  0  0  0  0  0  0  0
   -5.9277    3.7761    0.0146 H   0  0  0  0  0  0  0  0  0  0  0  0
  -14.7203   -2.0591   -0.0362 H   0  0  0  0  0  0  0  0  0  0  0  0
  1  2  1  0
  2  3  1  0
  3  4  1  0
  4  5  1  0
  5  6  1  0
  6  7  1  0
  7  8  1  0
  8  9  1  0
  9 10  1  0
 10 11  1  0
 11 12  1  0
 12 13  1  0
 13 14  1  0
 14 15  1  0
 15 16  1  0
 16 17  1  0
 17 18  1  0
 18 19  1  0
 19 20  1  0
 20 21  2  0
 20 22  1  0
 22 23  2  0
 23 24  1  0
 24 25  2  0
 25 26  1  0
 26 27  2  0
 27 28  1  0
 28 29  2  0
 29 30  1  0
 30 31  1  0
 31 32  2  0
 32 33  1  0
 33 34  2  0
 34 35  1  0
 35 36  2  0
 36 37  1  0
 37 38  2  0
 38 39  1  0
 39 40  2  0
 38 41  1  0
 41 42  2  0
 34 43  1  0
 31 44  1  0
 44 45  2  0
 44 46  1  0
 46 47  1  0
 47 48  2  0
 41 19  1  0
 39 22  1  0
 40 25  1  0
 43 26  1  0
 47 29  1  0
 43 30  2  0
 40 35  1  0
  1 49  1  0
  1 50  1  0
  1 51  1  0
  2 52  1  0
  2 53  1  0
  3 54  1  0
  3 55  1  0
  4 56  1  0
  4 57  1  0
  5 58  1  0
  5 59  1  0
  6 60  1  0
  6 61  1  0
  7 62  1  0
  7 63  1  0
  8 64  1  0
  8 65  1  0
  9 66  1  0
  9 67  1  0
 10 68  1  0
 10 69  1  0
 11 70  1  0
 11 71  1  0
 12 72  1  0
 12 73  1  0
 13 74  1  0
 13 75  1  0
 14 76  1  0
 14 77  1  0
 15 78  1  0
 15 79  1  0
 16 80  1  0
 16 81  1  0
 17 82  1  0
 17 83  1  0
 18 84  1  0
 18 85  1  0
 23 86  1  0
 24 87  1  0
 27 88  1  0
 28 89  1  0
 32 90  1  0
 33 91  1  0
 36 92  1  0
 37 93  1  0
 46 94  1  0
M  END
