
     RDKit          3D

 80 84  0  0  0  0  0  0  0  0999 V2000
    2.4441   -7.7861   -1.2069 C   0  0  0  0  0  0  0  0  0  0  0  0
    3.0430   -6.7508   -1.8928 O   0  0  0  0  0  0  0  0  0  0  0  0
    2.4933   -5.5277   -1.6010 C   0  0  0  0  0  0  0  0  0  0  0  0
    2.5794   -5.1186   -0.1502 C   0  0  0  0  0  0  0  0  0  0  0  0
    1.9563   -3.7678   -0.0135 C   0  0  0  0  0  0  0  0  0  0  0  0
    2.6474   -2.7091    0.3255 C   0  0  0  0  0  0  0  0  0  0  0  0
    1.7314   -1.5704    0.3768 C   0  0  0  0  0  0  0  0  0  0  0  0
    0.5498   -2.0853    0.0575 N   0  0  0  0  0  0  0  0  0  0  0  0
    0.5799   -3.3699   -0.1930 C   0  0  0  0  0  0  0  0  0  0  0  0
   -0.5931   -4.0424   -0.5871 C   0  0  0  0  0  0  0  0  0  0  0  0
   -1.7945   -3.4007   -0.8534 C   0  0  0  0  0  0  0  0  0  0  0  0
   -2.2273   -2.1012   -0.5685 C   0  0  0  0  0  0  0  0  0  0  0  0
   -1.6544   -0.9047   -0.7984 N   0  0  0  0  0  0  0  0  0  0  0  0
   -2.4218    0.0157   -0.2163 C   0  0  0  0  0  0  0  0  0  0  0  0
   -3.5344   -0.5746    0.3960 C   0  0  0  0  0  0  0  0  0  0  0  0
   -3.4183   -1.9176    0.1775 C   0  0  0  0  0  0  0  0  0  0  0  0
   -4.4136   -2.9601    0.6423 C   0  0  0  0  0  0  0  0  0  0  0  0
   -3.8518   -3.7055    1.8180 C   0  0  0  0  0  0  0  0  0  0  0  0
   -4.7415   -4.6562    2.2446 O   0  0  0  0  0  0  0  0  0  0  0  0
   -5.9693   -4.1671    2.6535 C   0  0  0  0  0  0  0  0  0  0  0  0
   -2.1919    1.4078   -0.0224 C   0  0  0  0  0  0  0  0  0  0  0  0
   -1.0763    1.8801    0.5480 N   0  0  0  0  0  0  0  0  0  0  0  0
   -1.0487    3.1755    0.7144 C   0  0  0  0  0  0  0  0  0  0  0  0
    0.0503    3.7838    1.3629 C   0  0  0  0  0  0  0  0  0  0  0  0
   -0.2423    5.0311    1.9905 N   0  0  0  0  0  0  0  0  0  0  0  0
    1.3174    3.2024    1.4064 C   0  0  0  0  0  0  0  0  0  0  0  0
    1.7383    1.9325    1.0234 C   0  0  0  0  0  0  0  0  0  0  0  0
    1.2463    0.7069    1.2866 N   0  0  0  0  0  0  0  0  0  0  0  0
    1.9477   -0.1747    0.5770 C   0  0  0  0  0  0  0  0  0  0  0  0
    2.9557    0.4696   -0.1771 C   0  0  0  0  0  0  0  0  0  0  0  0
    2.8161    1.7967    0.1102 C   0  0  0  0  0  0  0  0  0  0  0  0
    3.7131    2.8862   -0.4489 C   0  0  0  0  0  0  0  0  0  0  0  0
    4.7652    3.3076    0.5202 C   0  0  0  0  0  0  0  0  0  0  0  0
    5.5399    4.3024   -0.0238 O   0  0  0  0  0  0  0  0  0  0  0  0
    6.2188    3.9860   -1.1734 C   0  0  0  0  0  0  0  0  0  0  0  0
   -2.3161    3.6535    0.1801 C   0  0  0  0  0  0  0  0  0  0  0  0
   -2.7863    5.0856    0.1333 C   0  0  0  0  0  0  0  0  0  0  0  0
   -1.9356    5.9089   -0.8183 C   0  0  0  0  0  0  0  0  0  0  0  0
   -2.0525    5.3393   -2.1116 O   0  0  0  0  0  0  0  0  0  0  0  0
   -1.2686    6.1065   -2.9535 C   0  0  0  0  0  0  0  0  0  0  0  0
   -2.9864    2.6188   -0.2486 C   0  0  0  0  0  0  0  0  0  0  0  0
    2.5754   -7.6211   -0.1223 H   0  0  0  0  0  0  0  0  0  0  0  0
    2.9333   -8.7362   -1.5265 H   0  0  0  0  0  0  0  0  0  0  0  0
    1.3518   -7.8601   -1.4090 H   0  0  0  0  0  0  0  0  0  0  0  0
    2.9765   -4.6976   -2.1768 H   0  0  0  0  0  0  0  0  0  0  0  0
    1.4289   -5.5136   -1.9149 H   0  0  0  0  0  0  0  0  0  0  0  0
    3.5887   -5.1584    0.2528 H   0  0  0  0  0  0  0  0  0  0  0  0
    1.9061   -5.8326    0.4177 H   0  0  0  0  0  0  0  0  0  0  0  0
    3.7248   -2.6673    0.5371 H   0  0  0  0  0  0  0  0  0  0  0  0
   -0.4999   -5.1157   -0.6694 H   0  0  0  0  0  0  0  0  0  0  0  0
   -2.5284   -4.0924   -1.3552 H   0  0  0  0  0  0  0  0  0  0  0  0
   -0.7506   -0.7204   -1.4409 H   0  0  0  0  0  0  0  0  0  0  0  0
   -4.3826   -0.1161    0.9452 H   0  0  0  0  0  0  0  0  0  0  0  0
   -5.3487   -2.4365    0.8659 H   0  0  0  0  0  0  0  0  0  0  0  0
   -4.5174   -3.6506   -0.2203 H   0  0  0  0  0  0  0  0  0  0  0  0
   -2.9203   -4.2472    1.5244 H   0  0  0  0  0  0  0  0  0  0  0  0
   -3.5817   -2.9737    2.6350 H   0  0  0  0  0  0  0  0  0  0  0  0
   -5.8210   -3.4465    3.5109 H   0  0  0  0  0  0  0  0  0  0  0  0
   -6.5629   -3.7266    1.8350 H   0  0  0  0  0  0  0  0  0  0  0  0
   -6.5929   -5.0329    3.0165 H   0  0  0  0  0  0  0  0  0  0  0  0
   -0.8968    5.0820    2.7956 H   0  0  0  0  0  0  0  0  0  0  0  0
    0.1779    5.9318    1.6787 H   0  0  0  0  0  0  0  0  0  0  0  0
    2.0665    3.9401    1.7946 H   0  0  0  0  0  0  0  0  0  0  0  0
    0.4372    0.4819    2.0375 H   0  0  0  0  0  0  0  0  0  0  0  0
    3.7130    0.0242   -0.8473 H   0  0  0  0  0  0  0  0  0  0  0  0
    4.1983    2.4619   -1.3464 H   0  0  0  0  0  0  0  0  0  0  0  0
    3.0434    3.6969   -0.7617 H   0  0  0  0  0  0  0  0  0  0  0  0
    4.3815    3.6391    1.4966 H   0  0  0  0  0  0  0  0  0  0  0  0
    5.4731    2.4458    0.7308 H   0  0  0  0  0  0  0  0  0  0  0  0
    5.6063    3.6988   -2.0279 H   0  0  0  0  0  0  0  0  0  0  0  0
    6.9425    3.1337   -0.9983 H   0  0  0  0  0  0  0  0  0  0  0  0
    6.8985    4.8292   -1.4822 H   0  0  0  0  0  0  0  0  0  0  0  0
   -3.8335    5.0862   -0.1921 H   0  0  0  0  0  0  0  0  0  0  0  0
   -2.7719    5.5287    1.1530 H   0  0  0  0  0  0  0  0  0  0  0  0
   -0.8784    5.8199   -0.5411 H   0  0  0  0  0  0  0  0  0  0  0  0
   -2.2605    6.9470   -0.7923 H   0  0  0  0  0  0  0  0  0  0  0  0
   -1.3028    5.7275   -3.9947 H   0  0  0  0  0  0  0  0  0  0  0  0
   -0.2015    6.0710   -2.5986 H   0  0  0  0  0  0  0  0  0  0  0  0
   -1.5940    7.1590   -2.9930 H   0  0  0  0  0  0  0  0  0  0  0  0
   -3.9864    2.6343   -0.7015 H   0  0  0  0  0  0  0  0  0  0  0  0
  1  2  1  0
  2  3  1  0
  3  4  1  0
  4  5  1  0
  5  6  2  0
  6  7  1  0
  7  8  2  0
  8  9  1  0
  9 10  2  0
 10 11  1  0
 11 12  2  0
 12 13  1  0
 13 14  1  0
 14 15  1  0
 15 16  2  0
 16 17  1  0
 17 18  1  0
 18 19  1  0
 19 20  1  0
 14 21  2  0
 21 22  1  0
 22 23  2  0
 23 24  1  0
 24 25  1  0
 24 26  2  0
 26 27  1  0
 27 28  1  0
 28 29  1  0
 29 30  2  0
 30 31  1  0
 31 32  1  0
 32 33  1  0
 33 34  1  0
 34 35  1  0
 23 36  1  0
 36 37  1  0
 37 38  1  0
 38 39  1  0
 39 40  1  0
 36 41  2  0
  9  5  1  0
 16 12  1  0
 41 21  1  0
 29  7  1  0
 31 27  2  0
  1 42  1  0
  1 43  1  0
  1 44  1  0
  3 45  1  0
  3 46  1  0
  4 47  1  0
  4 48  1  0
  6 49  1  0
 10 50  1  0
 11 51  1  0
 13 52  1  0
 15 53  1  0
 17 54  1  0
 17 55  1  0
 18 56  1  0
 18 57  1  0
 20 58  1  0
 20 59  1  0
 20 60  1  0
 25 61  1  0
 25 62  1  0
 26 63  1  0
 28 64  1  0
 30 65  1  0
 32 66  1  0
 32 67  1  0
 33 68  1  0
 33 69  1  0
 35 70  1  0
 35 71  1  0
 35 72  1  0
 37 73  1  0
 37 74  1  0
 38 75  1  0
 38 76  1  0
 40 77  1  0
 40 78  1  0
 40 79  1  0
 41 80  1  0
M  END
