
     RDKit          3D

 46 48  0  0  0  0  0  0  0  0999 V2000
   -7.5822   -0.0126    0.2655 C   0  0  0  0  0  0  0  0  0  0  0  0
   -6.3544    0.8367    0.4643 C   0  0  0  0  0  0  0  0  0  0  0  0
   -5.2261    0.1815   -0.0845 N   0  0  0  0  0  0  0  0  0  0  0  0
   -4.7653   -0.9798    0.5165 C   0  0  0  0  0  0  0  0  0  0  0  0
   -3.3235   -1.2555    0.1990 C   0  0  0  0  0  0  0  0  0  0  0  0
   -2.5413   -0.0766   -0.0229 N   0  0  0  0  0  0  0  0  0  0  0  0
   -1.1263   -0.1403    0.1367 C   0  0  0  0  0  0  0  0  0  0  0  0
   -0.5192   -1.3790    0.2929 C   0  0  0  0  0  0  0  0  0  0  0  0
    0.8439   -1.4571    0.4533 C   0  0  0  0  0  0  0  0  0  0  0  0
    1.5921   -0.3019    0.4568 C   0  0  0  0  0  0  0  0  0  0  0  0
    3.0060   -0.4447    0.6250 N   0  0  0  0  0  0  0  0  0  0  0  0
    3.8370    0.1274   -0.1332 N   0  0  0  0  0  0  0  0  0  0  0  0
    5.2524    0.0359   -0.0324 C   0  0  0  0  0  0  0  0  0  0  0  0
    5.9257   -1.1030    0.2670 C   0  0  0  0  0  0  0  0  0  0  0  0
    7.3007   -1.0838    0.3398 C   0  0  0  0  0  0  0  0  0  0  0  0
    8.0643    0.0412    0.1245 C   0  0  0  0  0  0  0  0  0  0  0  0
    9.4676    0.0643    0.1977 N   0  0  0  0  0  4  0  0  0  0  0  0
   10.1125    1.1059   -0.0059 O   0  0  0  0  0  0  0  0  0  0  0  0
   10.1490   -1.0816    0.4995 O   0  0  0  0  0  1  0  0  0  0  0  0
    7.3446    1.1953   -0.1808 C   0  0  0  0  0  0  0  0  0  0  0  0
    5.9711    1.1978   -0.2587 C   0  0  0  0  0  0  0  0  0  0  0  0
    0.9923    0.9329    0.3015 C   0  0  0  0  0  0  0  0  0  0  0  0
   -0.3625    1.0047    0.1431 C   0  0  0  0  0  0  0  0  0  0  0  0
   -3.1092    1.1965   -0.4186 C   0  0  0  0  0  0  0  0  0  0  0  0
   -4.4752    0.8680   -1.0482 C   0  0  0  0  0  0  0  0  0  0  0  0
   -8.4061    0.6638   -0.0379 H   0  0  0  0  0  0  0  0  0  0  0  0
   -7.8769   -0.5277    1.2005 H   0  0  0  0  0  0  0  0  0  0  0  0
   -7.4066   -0.7365   -0.5401 H   0  0  0  0  0  0  0  0  0  0  0  0
   -6.2149    0.9805    1.5549 H   0  0  0  0  0  0  0  0  0  0  0  0
   -6.4478    1.8323   -0.0225 H   0  0  0  0  0  0  0  0  0  0  0  0
   -4.9659   -0.9331    1.6216 H   0  0  0  0  0  0  0  0  0  0  0  0
   -5.3802   -1.8629    0.1704 H   0  0  0  0  0  0  0  0  0  0  0  0
   -3.2577   -1.8892   -0.7076 H   0  0  0  0  0  0  0  0  0  0  0  0
   -2.9210   -1.8017    1.0907 H   0  0  0  0  0  0  0  0  0  0  0  0
   -1.1440   -2.2897    0.2833 H   0  0  0  0  0  0  0  0  0  0  0  0
    1.2805   -2.4475    0.5727 H   0  0  0  0  0  0  0  0  0  0  0  0
    5.3950   -2.0119    0.4456 H   0  0  0  0  0  0  0  0  0  0  0  0
    7.8717   -1.9913    0.5800 H   0  0  0  0  0  0  0  0  0  0  0  0
    7.8983    2.1114   -0.3603 H   0  0  0  0  0  0  0  0  0  0  0  0
    5.4285    2.1193   -0.5006 H   0  0  0  0  0  0  0  0  0  0  0  0
    1.5889    1.8279    0.3048 H   0  0  0  0  0  0  0  0  0  0  0  0
   -0.8857    1.9710    0.0199 H   0  0  0  0  0  0  0  0  0  0  0  0
   -2.5027    1.7447   -1.1610 H   0  0  0  0  0  0  0  0  0  0  0  0
   -3.3011    1.8019    0.4820 H   0  0  0  0  0  0  0  0  0  0  0  0
   -5.0016    1.7599   -1.3868 H   0  0  0  0  0  0  0  0  0  0  0  0
   -4.2248    0.2067   -1.9091 H   0  0  0  0  0  0  0  0  0  0  0  0
  1  2  1  0
  2  3  1  0
  3  4  1  0
  4  5  1  0
  5  6  1  0
  6  7  1  0
  7  8  2  0
  8  9  1  0
  9 10  2  0
 10 11  1  0
 11 12  2  0
 12 13  1  0
 13 14  2  0
 14 15  1  0
 15 16  2  0
 16 17  1  0
 17 18  2  0
 17 19  1  0
 16 20  1  0
 20 21  2  0
 10 22  1  0
 22 23  2  0
  6 24  1  0
 24 25  1  0
 25  3  1  0
 23  7  1  0
 21 13  1  0
  1 26  1  0
  1 27  1  0
  1 28  1  0
  2 29  1  0
  2 30  1  0
  4 31  1  0
  4 32  1  0
  5 33  1  0
  5 34  1  0
  8 35  1  0
  9 36  1  0
 14 37  1  0
 15 38  1  0
 20 39  1  0
 21 40  1  0
 22 41  1  0
 23 42  1  0
 24 43  1  0
 24 44  1  0
 25 45  1  0
 25 46  1  0
M  CHG  2  17   1  19  -1
M  END
