
     RDKit          3D

 18 19  0  0  0  0  0  0  0  0999 V2000
    3.5985    1.2144   -0.1089 O   0  0  0  0  0  0  0  0  0  0  0  0
    2.4961    0.6108   -0.0773 C   0  0  0  0  0  0  0  0  0  0  0  0
    2.3960   -0.8416   -0.0847 C   0  0  0  0  0  0  0  0  0  0  0  0
    1.2132   -1.4340   -0.0504 C   0  0  0  0  0  0  0  0  0  0  0  0
   -0.0420   -0.6812   -0.0037 C   0  0  0  0  0  0  0  0  0  0  0  0
   -1.2628   -1.3355    0.0315 C   0  0  0  0  0  0  0  0  0  0  0  0
   -2.4326   -0.6219    0.0751 C   0  0  0  0  0  0  0  0  0  0  0  0
   -2.4430    0.7565    0.0856 C   0  0  0  0  0  0  0  0  0  0  0  0
   -1.2332    1.4001    0.0508 C   0  0  0  0  0  0  0  0  0  0  0  0
   -0.0456    0.7068    0.0067 C   0  0  0  0  0  0  0  0  0  0  0  0
    1.2623    1.3842   -0.0311 C   0  0  0  0  0  0  0  0  0  0  0  0
    1.2351    2.6438   -0.0209 O   0  0  0  0  0  0  0  0  0  0  0  0
    3.2893   -1.4633   -0.1186 H   0  0  0  0  0  0  0  0  0  0  0  0
    1.1470   -2.5122   -0.0562 H   0  0  0  0  0  0  0  0  0  0  0  0
   -1.2569   -2.4306    0.0232 H   0  0  0  0  0  0  0  0  0  0  0  0
   -3.3699   -1.1698    0.1017 H   0  0  0  0  0  0  0  0  0  0  0  0
   -3.3818    1.2923    0.1204 H   0  0  0  0  0  0  0  0  0  0  0  0
   -1.1699    2.4813    0.0567 H   0  0  0  0  0  0  0  0  0  0  0  0
  1  2  2  0
  2  3  1  0
  3  4  2  0
  4  5  1  0
  5  6  2  0
  6  7  1  0
  7  8  2  0
  8  9  1  0
  9 10  2  0
 10 11  1  0
 11 12  2  0
 11  2  1  0
 10  5  1  0
  3 13  1  0
  4 14  1  0
  6 15  1  0
  7 16  1  0
  8 17  1  0
  9 18  1  0
M  END
