
     RDKit          3D

 55 60  0  0  0  0  0  0  0  0999 V2000
   -0.7055    1.7324   -2.5837 C   0  0  0  0  0  0  0  0  0  0  0  0
    0.5719    1.6811   -1.8387 C   0  0  0  0  0  0  0  0  0  0  0  0
    1.6514    2.4536   -2.0143 C   0  0  0  0  0  0  0  0  0  0  0  0
    2.6852    2.0834   -1.0865 C   0  0  0  0  0  0  0  0  0  0  0  0
    4.0184    2.7437   -1.0140 C   0  0  0  0  0  0  0  0  0  0  0  0
    2.2314    1.0976   -0.3595 N   0  0  0  0  0  4  0  0  0  0  0  0
    0.9110    0.7663   -0.7506 C   0  0  0  0  0  0  0  0  0  0  0  0
    0.2299   -0.2199   -0.1530 C   0  0  0  0  0  0  0  0  0  0  0  0
   -1.1105   -0.5090   -0.6067 C   0  0  0  0  0  0  0  0  0  0  0  0
   -2.2915    0.1050   -0.2537 C   0  0  0  0  0  0  0  0  0  0  0  0
   -2.5845    1.1704    0.6805 C   0  0  0  0  0  0  0  0  0  0  0  0
   -1.6278    1.7520    1.4404 C   0  0  0  0  0  0  0  0  0  0  0  0
   -1.9463    2.7631    2.3509 C   0  0  0  0  0  0  0  0  0  0  0  0
   -3.2347    3.1890    2.4961 C   0  0  0  0  0  0  0  0  0  0  0  0
   -4.1828    2.5669    1.7001 C   0  0  0  0  0  0  0  0  0  0  0  0
   -3.8538    1.5835    0.8181 N   0  0  0  0  0  0  0  0  0  0  0  0
   -3.2428   -0.5355   -1.0218 N   0  0  0  0  0  0  0  0  0  0  0  0
   -2.6901   -1.4682   -1.7829 C   0  0  0  0  0  0  0  0  0  0  0  0
   -3.2425   -2.3577   -2.7059 C   0  0  0  0  0  0  0  0  0  0  0  0
   -2.4495   -3.2523   -3.3864 C   0  0  0  0  0  0  0  0  0  0  0  0
   -1.0939   -3.2447   -3.1304 C   0  0  0  0  0  0  0  0  0  0  0  0
   -0.5876   -2.3444   -2.2060 C   0  0  0  0  0  0  0  0  0  0  0  0
   -1.3730   -1.4764   -1.5484 N   0  0  0  0  0  0  0  0  0  0  0  0
    0.8641   -0.9619    0.9229 C   0  0  0  0  0  0  0  0  0  0  0  0
    0.3660   -2.0149    1.6878 C   0  0  0  0  0  0  0  0  0  0  0  0
   -0.9511   -2.6254    1.5690 C   0  0  0  0  0  0  0  0  0  0  0  0
    1.3804   -2.3507    2.5729 C   0  0  0  0  0  0  0  0  0  0  0  0
    2.4519   -1.5412    2.3612 C   0  0  0  0  0  0  0  0  0  0  0  0
    3.7280   -1.6023    3.1194 C   0  0  0  0  0  0  0  0  0  0  0  0
    2.1039   -0.7050    1.3473 N   0  0  0  0  0  0  0  0  0  0  0  0
    2.9723    0.3816    0.7498 B   0  0  0  0  0  4  0  0  0  0  0  0
    3.2075    1.3800    1.8026 F   0  0  0  0  0  0  0  0  0  0  0  0
    4.2383   -0.1661    0.2774 F   0  0  0  0  0  0  0  0  0  0  0  0
   -0.5279    2.4459   -3.4508 H   0  0  0  0  0  0  0  0  0  0  0  0
   -1.4879    2.2500   -1.9901 H   0  0  0  0  0  0  0  0  0  0  0  0
   -1.0064    0.8047   -3.0626 H   0  0  0  0  0  0  0  0  0  0  0  0
    1.7003    3.2460   -2.7704 H   0  0  0  0  0  0  0  0  0  0  0  0
    4.6792    2.4743   -1.8575 H   0  0  0  0  0  0  0  0  0  0  0  0
    4.5422    2.5028   -0.0650 H   0  0  0  0  0  0  0  0  0  0  0  0
    3.8829    3.8472   -1.0181 H   0  0  0  0  0  0  0  0  0  0  0  0
   -0.5931    1.4819    1.4142 H   0  0  0  0  0  0  0  0  0  0  0  0
   -1.1725    3.2278    2.9600 H   0  0  0  0  0  0  0  0  0  0  0  0
   -3.5428    3.9816    3.1971 H   0  0  0  0  0  0  0  0  0  0  0  0
   -5.2010    2.8969    1.8088 H   0  0  0  0  0  0  0  0  0  0  0  0
   -4.3056   -2.3357   -2.8805 H   0  0  0  0  0  0  0  0  0  0  0  0
   -2.8723   -3.9590   -4.1170 H   0  0  0  0  0  0  0  0  0  0  0  0
   -0.4861   -3.9521   -3.6721 H   0  0  0  0  0  0  0  0  0  0  0  0
    0.4694   -2.3621   -2.0281 H   0  0  0  0  0  0  0  0  0  0  0  0
   -1.1223   -3.1822    0.6326 H   0  0  0  0  0  0  0  0  0  0  0  0
   -1.0459   -3.3999    2.3923 H   0  0  0  0  0  0  0  0  0  0  0  0
   -1.7937   -1.9260    1.7215 H   0  0  0  0  0  0  0  0  0  0  0  0
    1.2841   -3.1483    3.3057 H   0  0  0  0  0  0  0  0  0  0  0  0
    4.4257   -2.3511    2.6535 H   0  0  0  0  0  0  0  0  0  0  0  0
    4.1986   -0.6097    3.2220 H   0  0  0  0  0  0  0  0  0  0  0  0
    3.5318   -2.0070    4.1504 H   0  0  0  0  0  0  0  0  0  0  0  0
  1  2  1  0
  2  3  2  0
  3  4  1  0
  4  5  1  0
  4  6  2  0
  6  7  1  0
  7  8  2  0
  8  9  1  0
  9 10  2  0
 10 11  1  0
 11 12  2  0
 12 13  1  0
 13 14  2  0
 14 15  1  0
 15 16  2  0
 10 17  1  0
 17 18  2  0
 18 19  1  0
 19 20  2  0
 20 21  1  0
 21 22  2  0
 22 23  1  0
  8 24  1  0
 24 25  2  0
 25 26  1  0
 25 27  1  0
 27 28  2  0
 28 29  1  0
 28 30  1  0
 30 31  1  0
 31 32  1  0
 31 33  1  0
  7  2  1  0
 23  9  1  0
 30 24  1  0
 31  6  1  0
 16 11  1  0
 23 18  1  0
  1 34  1  0
  1 35  1  0
  1 36  1  0
  3 37  1  0
  5 38  1  0
  5 39  1  0
  5 40  1  0
 12 41  1  0
 13 42  1  0
 14 43  1  0
 15 44  1  0
 19 45  1  0
 20 46  1  0
 21 47  1  0
 22 48  1  0
 26 49  1  0
 26 50  1  0
 26 51  1  0
 27 52  1  0
 29 53  1  0
 29 54  1  0
 29 55  1  0
M  CHG  2   6   1  31  -1
M  END
