
     RDKit          3D

 42 46  0  0  0  0  0  0  0  0999 V2000
   -2.6583    0.7360   -2.4917 O   0  0  0  0  0  0  0  0  0  0  0  0
   -3.4085    0.5017   -1.4910 C   0  0  0  0  0  0  0  0  0  0  0  0
   -4.7053    0.5726   -1.6574 O   0  0  0  0  0  0  0  0  0  0  0  0
   -5.5305    0.3373   -0.6464 C   0  0  0  0  0  0  0  0  0  0  0  0
   -6.9076    0.4136   -0.8271 C   0  0  0  0  0  0  0  0  0  0  0  0
   -7.7503    0.1658    0.2355 C   0  0  0  0  0  0  0  0  0  0  0  0
   -7.2305   -0.1573    1.4764 C   0  0  0  0  0  0  0  0  0  0  0  0
   -5.8592   -0.2307    1.6461 C   0  0  0  0  0  0  0  0  0  0  0  0
   -5.0204    0.0170    0.5844 C   0  0  0  0  0  0  0  0  0  0  0  0
   -3.6526   -0.0624    0.7785 C   0  0  0  0  0  0  0  0  0  0  0  0
   -2.8298    0.1849   -0.2804 C   0  0  0  0  0  0  0  0  0  0  0  0
   -1.3850    0.1084   -0.1050 C   0  0  0  0  0  0  0  0  0  0  0  0
   -0.7371    0.6691    0.9735 C   0  0  0  0  0  0  0  0  0  0  0  0
    0.6515    0.5881    1.1294 C   0  0  0  0  0  0  0  0  0  0  0  0
    1.4022   -0.0717    0.1785 C   0  0  0  0  0  0  0  0  0  0  0  0
    2.8460   -0.1604    0.3332 C   0  0  0  0  0  0  0  0  0  0  0  0
    3.6590    0.0866   -0.7489 C   0  0  0  0  0  0  0  0  0  0  0  0
    5.0294   -0.0164   -0.5273 C   0  0  0  0  0  0  0  0  0  0  0  0
    5.8963    0.2203   -1.5758 C   0  0  0  0  0  0  0  0  0  0  0  0
    7.2502    0.1251   -1.3827 C   0  0  0  0  0  0  0  0  0  0  0  0
    7.7135   -0.2088   -0.1303 C   0  0  0  0  0  0  0  0  0  0  0  0
    6.8755   -0.4490    0.9283 C   0  0  0  0  0  0  0  0  0  0  0  0
    5.4938   -0.3504    0.7254 C   0  0  0  0  0  0  0  0  0  0  0  0
    4.6800   -0.5772    1.7279 O   0  0  0  0  0  0  0  0  0  0  0  0
    3.3856   -0.4898    1.5577 C   0  0  0  0  0  0  0  0  0  0  0  0
    2.5774   -0.7090    2.5293 O   0  0  0  0  0  0  0  0  0  0  0  0
    0.7751   -0.6361   -0.9020 C   0  0  0  0  0  0  0  0  0  0  0  0
   -0.6020   -0.5435   -1.0360 C   0  0  0  0  0  0  0  0  0  0  0  0
   -7.3099    0.6649   -1.7925 H   0  0  0  0  0  0  0  0  0  0  0  0
   -8.8436    0.2165    0.1315 H   0  0  0  0  0  0  0  0  0  0  0  0
   -7.8469   -0.3609    2.3428 H   0  0  0  0  0  0  0  0  0  0  0  0
   -5.4232   -0.4816    2.6070 H   0  0  0  0  0  0  0  0  0  0  0  0
   -3.2837   -0.3155    1.7540 H   0  0  0  0  0  0  0  0  0  0  0  0
   -1.3259    1.1755    1.7008 H   0  0  0  0  0  0  0  0  0  0  0  0
    1.1274    1.0438    1.9950 H   0  0  0  0  0  0  0  0  0  0  0  0
    3.2820    0.3480   -1.7273 H   0  0  0  0  0  0  0  0  0  0  0  0
    5.4609    0.4768   -2.5273 H   0  0  0  0  0  0  0  0  0  0  0  0
    7.9231    0.3150   -2.2211 H   0  0  0  0  0  0  0  0  0  0  0  0
    8.7969   -0.2822    0.0129 H   0  0  0  0  0  0  0  0  0  0  0  0
    7.2276   -0.7151    1.9286 H   0  0  0  0  0  0  0  0  0  0  0  0
    1.3692   -1.1568   -1.6521 H   0  0  0  0  0  0  0  0  0  0  0  0
   -1.1124   -0.9920   -1.8970 H   0  0  0  0  0  0  0  0  0  0  0  0
  1  2  2  0
  2  3  1  0
  3  4  1  0
  4  5  2  0
  5  6  1  0
  6  7  2  0
  7  8  1  0
  8  9  2  0
  9 10  1  0
 10 11  2  0
 11 12  1  0
 12 13  2  0
 13 14  1  0
 14 15  2  0
 15 16  1  0
 16 17  2  0
 17 18  1  0
 18 19  2  0
 19 20  1  0
 20 21  2  0
 21 22  1  0
 22 23  2  0
 23 24  1  0
 24 25  1  0
 25 26  2  0
 15 27  1  0
 27 28  2  0
 11  2  1  0
 28 12  1  0
  9  4  1  0
 25 16  1  0
 23 18  1  0
  5 29  1  0
  6 30  1  0
  7 31  1  0
  8 32  1  0
 10 33  1  0
 13 34  1  0
 14 35  1  0
 17 36  1  0
 19 37  1  0
 20 38  1  0
 21 39  1  0
 22 40  1  0
 27 41  1  0
 28 42  1  0
M  END
