
     RDKit          3D

 40 44  0  0  0  0  0  0  0  0999 V2000
    3.3829    1.3834    2.4328 C   0  0  0  0  0  0  0  0  0  0  0  0
    2.7275    0.6897    1.2611 C   0  0  0  0  0  0  0  0  0  0  0  0
    3.4238    0.1623    0.3632 O   0  0  0  0  0  3  0  0  0  0  0  0
    2.8528   -0.5317   -0.8097 B   0  0  0  0  0  4  0  0  0  0  0  0
    3.4527    0.0893   -2.0306 O   0  0  0  0  0  0  0  0  0  0  0  0
    4.7248   -0.4676   -2.1274 C   0  0  0  0  0  0  0  0  0  0  0  0
    5.7340    0.0065   -2.7410 O   0  0  0  0  0  0  0  0  0  0  0  0
    4.7450   -1.7374   -1.3900 C   0  0  0  0  0  0  0  0  0  0  0  0
    5.7401   -2.5293   -1.2569 O   0  0  0  0  0  0  0  0  0  0  0  0
    3.4657   -1.9079   -0.8645 O   0  0  0  0  0  0  0  0  0  0  0  0
    1.3984   -0.5591   -0.8284 O   0  0  0  0  0  0  0  0  0  0  0  0
    0.6212    0.0437    0.1793 C   0  0  0  0  0  0  0  0  0  0  0  0
   -0.8401    0.0111    0.0806 C   0  0  0  0  0  0  0  0  0  0  0  0
   -1.4854   -1.1681   -0.3103 C   0  0  0  0  0  0  0  0  0  0  0  0
   -0.7296   -2.2929   -0.4875 C   0  0  0  0  0  0  0  0  0  0  0  0
   -1.3659   -3.4879   -0.8639 C   0  0  0  0  0  0  0  0  0  0  0  0
   -2.7244   -3.5002   -1.0434 C   0  0  0  0  0  0  0  0  0  0  0  0
   -3.4963   -2.3995   -0.8727 C   0  0  0  0  0  0  0  0  0  0  0  0
   -2.8662   -1.2139   -0.4997 C   0  0  0  0  0  0  0  0  0  0  0  0
   -3.6349   -0.0966   -0.3053 C   0  0  0  0  0  0  0  0  0  0  0  0
   -3.0118    1.0627    0.0758 C   0  0  0  0  0  0  0  0  0  0  0  0
   -3.8027    2.1769    0.2215 C   0  0  0  0  0  0  0  0  0  0  0  0
   -3.2197    3.3787    0.5583 C   0  0  0  0  0  0  0  0  0  0  0  0
   -1.8720    3.4892    0.7496 C   0  0  0  0  0  0  0  0  0  0  0  0
   -1.0724    2.3432    0.5991 C   0  0  0  0  0  0  0  0  0  0  0  0
   -1.6251    1.1344    0.2701 C   0  0  0  0  0  0  0  0  0  0  0  0
    1.2809    0.6209    1.1533 C   0  0  0  0  0  0  0  0  0  0  0  0
    3.2037    0.7341    3.3121 H   0  0  0  0  0  0  0  0  0  0  0  0
    4.4322    1.5711    2.2093 H   0  0  0  0  0  0  0  0  0  0  0  0
    2.8161    2.3311    2.6331 H   0  0  0  0  0  0  0  0  0  0  0  0
    0.3353   -2.3062   -0.3291 H   0  0  0  0  0  0  0  0  0  0  0  0
   -0.7532   -4.3492   -0.9961 H   0  0  0  0  0  0  0  0  0  0  0  0
   -3.1869   -4.4318   -1.3327 H   0  0  0  0  0  0  0  0  0  0  0  0
   -4.5643   -2.3905   -1.0088 H   0  0  0  0  0  0  0  0  0  0  0  0
   -4.7137   -0.1564   -0.4572 H   0  0  0  0  0  0  0  0  0  0  0  0
   -4.8742    2.0978    0.0703 H   0  0  0  0  0  0  0  0  0  0  0  0
   -3.8407    4.2679    0.6770 H   0  0  0  0  0  0  0  0  0  0  0  0
   -1.3691    4.4245    1.0158 H   0  0  0  0  0  0  0  0  0  0  0  0
   -0.0123    2.4694    0.6968 H   0  0  0  0  0  0  0  0  0  0  0  0
    0.7241    1.0383    1.9961 H   0  0  0  0  0  0  0  0  0  0  0  0
  1  2  1  0
  2  3  2  0
  3  4  1  0
  4  5  1  0
  5  6  1  0
  6  7  2  0
  6  8  1  0
  8  9  2  0
  8 10  1  0
  4 11  1  0
 11 12  1  0
 12 13  1  0
 13 14  1  0
 14 15  2  0
 15 16  1  0
 16 17  2  0
 17 18  1  0
 18 19  2  0
 19 20  1  0
 20 21  2  0
 21 22  1  0
 22 23  2  0
 23 24  1  0
 24 25  2  0
 25 26  1  0
 12 27  2  0
 27  2  1  0
 10  4  1  0
 26 13  2  0
 19 14  1  0
 26 21  1  0
  1 28  1  0
  1 29  1  0
  1 30  1  0
 15 31  1  0
 16 32  1  0
 17 33  1  0
 18 34  1  0
 20 35  1  0
 22 36  1  0
 23 37  1  0
 24 38  1  0
 25 39  1  0
 27 40  1  0
M  CHG  2   3   1   4  -1
M  END
