
     RDKit          3D

 81 89  0  0  0  0  0  0  0  0999 V2000
    0.2430   -2.4697    1.3794 F   0  0  0  0  0  0  0  0  0  0  0  0
    0.0843   -1.6016    0.2652 B   0  0  0  0  0  4  0  0  0  0  0  0
    0.1592   -2.3786   -1.0290 F   0  0  0  0  0  0  0  0  0  0  0  0
    1.2782   -0.6492    0.0792 N   0  0  0  0  0  0  0  0  0  0  0  0
    1.1840    0.6439   -0.2066 C   0  0  0  0  0  0  0  0  0  0  0  0
    2.4647    1.1853   -0.3343 C   0  0  0  0  0  0  0  0  0  0  0  0
    2.7847    2.5687   -0.6424 C   0  0  0  0  0  0  0  0  0  0  0  0
    3.4688    2.7810   -1.8281 C   0  0  0  0  0  0  0  0  0  0  0  0
    3.8303    4.0324   -2.2342 C   0  0  0  0  0  0  0  0  0  0  0  0
    3.4811    5.0870   -1.4040 C   0  0  0  0  0  0  0  0  0  0  0  0
    2.8021    4.8978   -0.2229 C   0  0  0  0  0  0  0  0  0  0  0  0
    2.4559    3.6230    0.1514 C   0  0  0  0  0  0  0  0  0  0  0  0
    3.3212    0.1329   -0.1049 C   0  0  0  0  0  0  0  0  0  0  0  0
    4.7709    0.2724   -0.1300 C   0  0  0  0  0  0  0  0  0  0  0  0
    5.4202    1.0006    0.8753 C   0  0  0  0  0  0  0  0  0  0  0  0
    6.7734    1.1848    0.9237 C   0  0  0  0  0  0  0  0  0  0  0  0
    7.5349    0.6090   -0.0921 C   0  0  0  0  0  0  0  0  0  0  0  0
    6.9526   -0.1105   -1.0961 C   0  0  0  0  0  0  0  0  0  0  0  0
    5.5902   -0.2655   -1.0983 C   0  0  0  0  0  0  0  0  0  0  0  0
    2.5994   -1.0095    0.1527 C   0  0  0  0  0  0  0  0  0  0  0  0
    3.1609   -2.3198    0.4388 C   0  0  0  0  0  0  0  0  0  0  0  0
    3.7614   -3.1075   -0.5240 C   0  0  0  0  0  0  0  0  0  0  0  0
    4.3020   -4.3410   -0.2678 C   0  0  0  0  0  0  0  0  0  0  0  0
    4.2605   -4.8541    1.0133 C   0  0  0  0  0  0  0  0  0  0  0  0
    3.6693   -4.0976    2.0002 C   0  0  0  0  0  0  0  0  0  0  0  0
    3.1272   -2.8539    1.7293 C   0  0  0  0  0  0  0  0  0  0  0  0
   -0.1469    1.2280   -0.2935 C   0  0  0  0  0  0  0  0  0  0  0  0
   -1.2368    0.5066   -0.1019 C   0  0  0  0  0  0  0  0  0  0  0  0
   -2.6693    0.9197   -0.1284 C   0  0  0  0  0  0  0  0  0  0  0  0
   -3.0372    2.3104   -0.4107 C   0  0  0  0  0  0  0  0  0  0  0  0
   -2.7348    2.7942   -1.6995 C   0  0  0  0  0  0  0  0  0  0  0  0
   -2.9894    4.0958   -2.0732 C   0  0  0  0  0  0  0  0  0  0  0  0
   -3.5567    4.9813   -1.1860 C   0  0  0  0  0  0  0  0  0  0  0  0
   -3.8562    4.5234    0.0746 C   0  0  0  0  0  0  0  0  0  0  0  0
   -3.5927    3.1938    0.4486 C   0  0  0  0  0  0  0  0  0  0  0  0
   -3.4090   -0.1362    0.1353 C   0  0  0  0  0  0  0  0  0  0  0  0
   -4.8587   -0.1123    0.1864 C   0  0  0  0  0  0  0  0  0  0  0  0
   -5.5925   -0.8751   -0.7541 C   0  0  0  0  0  0  0  0  0  0  0  0
   -6.9680   -0.8755   -0.7271 C   0  0  0  0  0  0  0  0  0  0  0  0
   -7.6843   -0.1485    0.1977 C   0  0  0  0  0  0  0  0  0  0  0  0
   -6.9893    0.5875    1.1070 C   0  0  0  0  0  0  0  0  0  0  0  0
   -5.6027    0.5912    1.0849 C   0  0  0  0  0  0  0  0  0  0  0  0
   -2.4964   -1.2890    0.3418 C   0  0  0  0  0  0  0  0  0  0  0  0
   -2.9888   -2.6197    0.6337 C   0  0  0  0  0  0  0  0  0  0  0  0
   -2.3134   -3.7857    0.3660 C   0  0  0  0  0  0  0  0  0  0  0  0
   -2.7565   -5.0573    0.7533 C   0  0  0  0  0  0  0  0  0  0  0  0
   -3.9352   -5.1423    1.4396 C   0  0  0  0  0  0  0  0  0  0  0  0
   -4.6697   -4.0193    1.7459 C   0  0  0  0  0  0  0  0  0  0  0  0
   -4.1898   -2.7941    1.3444 C   0  0  0  0  0  0  0  0  0  0  0  0
   -1.2573   -0.8816    0.1883 N   0  0  0  0  0  4  0  0  0  0  0  0
    3.7427    1.9486   -2.4794 H   0  0  0  0  0  0  0  0  0  0  0  0
    4.3634    4.1704   -3.1623 H   0  0  0  0  0  0  0  0  0  0  0  0
    3.7741    6.0746   -1.7388 H   0  0  0  0  0  0  0  0  0  0  0  0
    2.5499    5.7395    0.3900 H   0  0  0  0  0  0  0  0  0  0  0  0
    1.9230    3.4598    1.0736 H   0  0  0  0  0  0  0  0  0  0  0  0
    4.8022    1.4352    1.6507 H   0  0  0  0  0  0  0  0  0  0  0  0
    7.2149    1.7550    1.7240 H   0  0  0  0  0  0  0  0  0  0  0  0
    8.6183    0.7538   -0.0576 H   0  0  0  0  0  0  0  0  0  0  0  0
    7.5552   -0.5485   -1.8738 H   0  0  0  0  0  0  0  0  0  0  0  0
    5.1629   -0.8255   -1.8928 H   0  0  0  0  0  0  0  0  0  0  0  0
    3.8059   -2.7376   -1.5391 H   0  0  0  0  0  0  0  0  0  0  0  0
    4.7518   -4.8849   -1.0871 H   0  0  0  0  0  0  0  0  0  0  0  0
    4.6966   -5.8317    1.1854 H   0  0  0  0  0  0  0  0  0  0  0  0
    3.6493   -4.5200    2.9920 H   0  0  0  0  0  0  0  0  0  0  0  0
    2.6710   -2.2830    2.5298 H   0  0  0  0  0  0  0  0  0  0  0  0
   -0.2168    2.2779   -0.5213 H   0  0  0  0  0  0  0  0  0  0  0  0
   -2.2876    2.0778   -2.3850 H   0  0  0  0  0  0  0  0  0  0  0  0
   -2.7538    4.4522   -3.0617 H   0  0  0  0  0  0  0  0  0  0  0  0
   -3.7795    6.0067   -1.4177 H   0  0  0  0  0  0  0  0  0  0  0  0
   -4.2983    5.2020    0.7790 H   0  0  0  0  0  0  0  0  0  0  0  0
   -3.8077    2.8736    1.4506 H   0  0  0  0  0  0  0  0  0  0  0  0
   -5.0309   -1.4435   -1.4768 H   0  0  0  0  0  0  0  0  0  0  0  0
   -7.5521   -1.4581   -1.4445 H   0  0  0  0  0  0  0  0  0  0  0  0
   -8.7735   -0.1478    0.2185 H   0  0  0  0  0  0  0  0  0  0  0  0
   -7.4747    1.1852    1.8648 H   0  0  0  0  0  0  0  0  0  0  0  0
   -5.0912    1.1563    1.8437 H   0  0  0  0  0  0  0  0  0  0  0  0
   -1.3977   -3.7852   -0.1869 H   0  0  0  0  0  0  0  0  0  0  0  0
   -2.1522   -5.9162    0.4955 H   0  0  0  0  0  0  0  0  0  0  0  0
   -4.2798   -6.1417    1.7412 H   0  0  0  0  0  0  0  0  0  0  0  0
   -5.6052   -4.0725    2.2893 H   0  0  0  0  0  0  0  0  0  0  0  0
   -4.7288   -1.9284    1.6295 H   0  0  0  0  0  0  0  0  0  0  0  0
  1  2  1  0
  2  3  1  0
  2  4  1  0
  4  5  1  0
  5  6  2  0
  6  7  1  0
  7  8  2  0
  8  9  1  0
  9 10  2  0
 10 11  1  0
 11 12  2  0
  6 13  1  0
 13 14  1  0
 14 15  2  0
 15 16  1  0
 16 17  2  0
 17 18  1  0
 18 19  2  0
 13 20  2  0
 20 21  1  0
 21 22  2  0
 22 23  1  0
 23 24  2  0
 24 25  1  0
 25 26  2  0
  5 27  1  0
 27 28  2  0
 28 29  1  0
 29 30  1  0
 30 31  2  0
 31 32  1  0
 32 33  2  0
 33 34  1  0
 34 35  2  0
 29 36  2  0
 36 37  1  0
 37 38  2  0
 38 39  1  0
 39 40  2  0
 40 41  1  0
 41 42  2  0
 36 43  1  0
 43 44  1  0
 44 45  2  0
 45 46  1  0
 46 47  2  0
 47 48  1  0
 48 49  2  0
 43 50  2  0
 50  2  1  0
 20  4  1  0
 26 21  1  0
 50 28  1  0
 12  7  1  0
 19 14  1  0
 35 30  1  0
 42 37  1  0
 49 44  1  0
  8 51  1  0
  9 52  1  0
 10 53  1  0
 11 54  1  0
 12 55  1  0
 15 56  1  0
 16 57  1  0
 17 58  1  0
 18 59  1  0
 19 60  1  0
 22 61  1  0
 23 62  1  0
 24 63  1  0
 25 64  1  0
 26 65  1  0
 27 66  1  0
 31 67  1  0
 32 68  1  0
 33 69  1  0
 34 70  1  0
 35 71  1  0
 38 72  1  0
 39 73  1  0
 40 74  1  0
 41 75  1  0
 42 76  1  0
 45 77  1  0
 46 78  1  0
 47 79  1  0
 48 80  1  0
 49 81  1  0
M  CHG  2   2  -1  50   1
M  END
