
     RDKit          3D

 22 23  0  0  0  0  0  0  0  0999 V2000
    3.4960    0.1005   -0.2613 C   0  0  0  0  0  0  0  0  0  0  0  0
    2.9110   -0.9714    0.3597 C   0  0  0  0  0  0  0  0  0  0  0  0
    1.5160   -1.0033    0.4580 C   0  0  0  0  0  0  0  0  0  0  0  0
    0.7271   -0.0074   -0.0422 C   0  0  0  0  0  0  0  0  0  0  0  0
   -0.7371   -0.0347    0.0628 C   0  0  0  0  0  0  0  0  0  0  0  0
   -1.3670   -0.6266    1.1471 C   0  0  0  0  0  0  0  0  0  0  0  0
   -2.7440   -0.6613    1.2611 C   0  0  0  0  0  0  0  0  0  0  0  0
   -3.5171   -0.0891    0.2656 C   0  0  0  0  0  0  0  0  0  0  0  0
   -2.8998    0.5037   -0.8194 C   0  0  0  0  0  0  0  0  0  0  0  0
   -1.5060    0.5359   -0.9297 C   0  0  0  0  0  0  0  0  0  0  0  0
    1.3636    1.0593   -0.6636 C   0  0  0  0  0  0  0  0  0  0  0  0
    2.7435    1.1303   -0.7822 C   0  0  0  0  0  0  0  0  0  0  0  0
    4.5709    0.1834   -0.3700 H   0  0  0  0  0  0  0  0  0  0  0  0
    3.5207   -1.7722    0.7618 H   0  0  0  0  0  0  0  0  0  0  0  0
    1.0869   -1.8508    0.9458 H   0  0  0  0  0  0  0  0  0  0  0  0
   -0.7076   -1.0567    1.8931 H   0  0  0  0  0  0  0  0  0  0  0  0
   -3.2080   -1.1321    2.1216 H   0  0  0  0  0  0  0  0  0  0  0  0
   -4.5910   -0.0885    0.3061 H   0  0  0  0  0  0  0  0  0  0  0  0
   -3.4903    0.9512   -1.5981 H   0  0  0  0  0  0  0  0  0  0  0  0
   -1.0460    1.0071   -1.7918 H   0  0  0  0  0  0  0  0  0  0  0  0
    0.7160    1.8358   -1.0503 H   0  0  0  0  0  0  0  0  0  0  0  0
    3.1623    1.9868   -1.2743 H   0  0  0  0  0  0  0  0  0  0  0  0
  1  2  2  0
  2  3  1  0
  3  4  2  0
  4  5  1  0
  5  6  2  0
  6  7  1  0
  7  8  2  0
  8  9  1  0
  9 10  2  0
  4 11  1  0
 11 12  2  0
 12  1  1  0
 10  5  1  0
  1 13  1  0
  2 14  1  0
  3 15  1  0
  6 16  1  0
  7 17  1  0
  8 18  1  0
  9 19  1  0
 10 20  1  0
 11 21  1  0
 12 22  1  0
M  END
