
     RDKit          3D

 59 63  0  0  0  0  0  0  0  0999 V2000
   -6.3626    3.8965    1.1460 C   0  0  0  0  0  0  0  0  0  0  0  0
   -7.2120    2.7933    0.9180 O   0  0  0  0  0  0  0  0  0  0  0  0
   -6.6324    1.5648    0.6198 C   0  0  0  0  0  0  0  0  0  0  0  0
   -7.3967    0.4301    0.3830 C   0  0  0  0  0  0  0  0  0  0  0  0
   -6.8387   -0.7930    0.0869 C   0  0  0  0  0  0  0  0  0  0  0  0
   -7.6278   -1.9040   -0.1431 O   0  0  0  0  0  0  0  0  0  0  0  0
   -7.0806   -3.1724   -0.4490 C   0  0  0  0  0  0  0  0  0  0  0  0
   -5.4553   -0.8911    0.0234 C   0  0  0  0  0  0  0  0  0  0  0  0
   -4.6690    0.2070    0.2512 C   0  0  0  0  0  0  0  0  0  0  0  0
   -3.2122    0.1404    0.1947 C   0  0  0  0  0  0  0  0  0  0  0  0
   -2.4417    0.9596    0.9873 C   0  0  0  0  0  0  0  0  0  0  0  0
   -1.0594    0.8991    0.9313 C   0  0  0  0  0  0  0  0  0  0  0  0
   -0.4048    0.0284    0.0914 C   0  0  0  0  0  0  0  0  0  0  0  0
    1.0408   -0.0236    0.0422 C   0  0  0  0  0  0  0  0  0  0  0  0
    1.7473   -0.8142   -0.7145 C   0  0  0  0  0  0  0  0  0  0  0  0
    3.1739   -0.5951   -0.5044 C   0  0  0  0  0  0  0  0  0  0  0  0
    4.2123   -1.3616   -1.1981 C   0  0  0  0  0  0  0  0  0  0  0  0
    4.0647   -1.5973   -2.5494 C   0  0  0  0  0  0  0  0  0  0  0  0
    4.9805   -2.3185   -3.2792 C   0  0  0  0  0  0  0  0  0  0  0  0
    6.0895   -2.8259   -2.6360 C   0  0  0  0  0  0  0  0  0  0  0  0
    6.2298   -2.5861   -1.2857 C   0  0  0  0  0  0  0  0  0  0  0  0
    5.3049   -1.8604   -0.5595 C   0  0  0  0  0  0  0  0  0  0  0  0
    3.3078    0.3385    0.3882 C   0  0  0  0  0  0  0  0  0  0  0  0
    4.5951    0.8722    0.8936 C   0  0  0  0  0  0  0  0  0  0  0  0
    4.6874    1.1083    2.2404 C   0  0  0  0  0  0  0  0  0  0  0  0
    5.8472    1.6227    2.8268 C   0  0  0  0  0  0  0  0  0  0  0  0
    6.9079    1.8895    2.0073 C   0  0  0  0  0  0  0  0  0  0  0  0
    6.8127    1.6522    0.6589 C   0  0  0  0  0  0  0  0  0  0  0  0
    5.6661    1.1446    0.0834 C   0  0  0  0  0  0  0  0  0  0  0  0
    1.9639    0.7881    0.8227 C   0  0  0  0  0  0  0  0  0  0  0  0
   -1.1877   -0.7823   -0.6928 C   0  0  0  0  0  0  0  0  0  0  0  0
   -2.5721   -0.7362   -0.6505 C   0  0  0  0  0  0  0  0  0  0  0  0
   -5.2554    1.4132    0.5444 C   0  0  0  0  0  0  0  0  0  0  0  0
   -5.5678    3.6599    1.8972 H   0  0  0  0  0  0  0  0  0  0  0  0
   -6.9774    4.7044    1.6189 H   0  0  0  0  0  0  0  0  0  0  0  0
   -5.9062    4.3086    0.2331 H   0  0  0  0  0  0  0  0  0  0  0  0
   -8.4722    0.4996    0.4304 H   0  0  0  0  0  0  0  0  0  0  0  0
   -6.5001   -3.1395   -1.3962 H   0  0  0  0  0  0  0  0  0  0  0  0
   -7.9022   -3.9196   -0.4924 H   0  0  0  0  0  0  0  0  0  0  0  0
   -6.3604   -3.4203    0.3646 H   0  0  0  0  0  0  0  0  0  0  0  0
   -5.0353   -1.8514   -0.2090 H   0  0  0  0  0  0  0  0  0  0  0  0
   -2.9340    1.6654    1.6684 H   0  0  0  0  0  0  0  0  0  0  0  0
   -0.4974    1.5763    1.5864 H   0  0  0  0  0  0  0  0  0  0  0  0
    1.3341   -1.5463   -1.4148 H   0  0  0  0  0  0  0  0  0  0  0  0
    3.2040   -1.2178   -3.1093 H   0  0  0  0  0  0  0  0  0  0  0  0
    4.8915   -2.5186   -4.3401 H   0  0  0  0  0  0  0  0  0  0  0  0
    6.8378   -3.4055   -3.1902 H   0  0  0  0  0  0  0  0  0  0  0  0
    7.1011   -2.9784   -0.7557 H   0  0  0  0  0  0  0  0  0  0  0  0
    5.4400   -1.6893    0.5147 H   0  0  0  0  0  0  0  0  0  0  0  0
    3.8623    0.9020    2.8900 H   0  0  0  0  0  0  0  0  0  0  0  0
    5.9015    1.8020    3.8962 H   0  0  0  0  0  0  0  0  0  0  0  0
    7.8200    2.2906    2.4541 H   0  0  0  0  0  0  0  0  0  0  0  0
    7.6671    1.8700    0.0231 H   0  0  0  0  0  0  0  0  0  0  0  0
    5.5973    0.9624   -0.9781 H   0  0  0  0  0  0  0  0  0  0  0  0
    1.9023    1.8768    0.5237 H   0  0  0  0  0  0  0  0  0  0  0  0
    1.8205    0.6776    1.9189 H   0  0  0  0  0  0  0  0  0  0  0  0
   -0.6935   -1.4709   -1.3576 H   0  0  0  0  0  0  0  0  0  0  0  0
   -3.1258   -1.4057   -1.2977 H   0  0  0  0  0  0  0  0  0  0  0  0
   -4.6307    2.2810    0.7255 H   0  0  0  0  0  0  0  0  0  0  0  0
  1  2  1  0
  2  3  1  0
  3  4  2  0
  4  5  1  0
  5  6  1  0
  6  7  1  0
  5  8  2  0
  8  9  1  0
  9 10  1  0
 10 11  2  0
 11 12  1  0
 12 13  2  0
 13 14  1  0
 14 15  2  0
 15 16  1  0
 16 17  1  0
 17 18  2  0
 18 19  1  0
 19 20  2  0
 20 21  1  0
 21 22  2  0
 16 23  2  0
 23 24  1  0
 24 25  2  0
 25 26  1  0
 26 27  2  0
 27 28  1  0
 28 29  2  0
 23 30  1  0
 13 31  1  0
 31 32  2  0
  9 33  2  0
 33  3  1  0
 32 10  1  0
 30 14  1  0
 22 17  1  0
 29 24  1  0
  1 34  1  0
  1 35  1  0
  1 36  1  0
  4 37  1  0
  7 38  1  0
  7 39  1  0
  7 40  1  0
  8 41  1  0
 11 42  1  0
 12 43  1  0
 15 44  1  0
 18 45  1  0
 19 46  1  0
 20 47  1  0
 21 48  1  0
 22 49  1  0
 25 50  1  0
 26 51  1  0
 27 52  1  0
 28 53  1  0
 29 54  1  0
 30 55  1  0
 30 56  1  0
 31 57  1  0
 32 58  1  0
 33 59  1  0
M  END
