
     RDKit          3D

 48 51  0  0  0  0  0  0  0  0999 V2000
    7.3991   -0.4032    0.2049 C   0  0  0  0  0  0  0  0  0  0  0  0
    6.3930   -1.3956    0.2485 O   0  0  0  0  0  0  0  0  0  0  0  0
    5.0520   -1.0620    0.1599 C   0  0  0  0  0  0  0  0  0  0  0  0
    4.0469   -2.0059    0.1992 C   0  0  0  0  0  0  0  0  0  0  0  0
    2.7170   -1.6426    0.1085 C   0  0  0  0  0  0  0  0  0  0  0  0
    2.3854   -0.3197   -0.0233 C   0  0  0  0  0  0  0  0  0  0  0  0
    1.0201    0.0879   -0.1195 N   0  0  0  0  0  0  0  0  0  0  0  0
   -0.0111   -0.6992   -0.0677 N   0  0  0  0  0  0  0  0  0  0  0  0
   -1.1670   -0.0325   -0.1859 C   0  0  0  0  0  0  0  0  0  0  0  0
   -2.4788   -0.6299   -0.1726 C   0  0  0  0  0  0  0  0  0  0  0  0
   -3.4693    0.1592   -0.3038 O   0  0  0  0  0  0  0  0  0  0  0  0
   -2.7208   -1.9912   -0.0277 N   0  0  0  0  0  0  0  0  0  0  0  0
   -1.8038   -3.0739    0.1354 C   0  0  0  0  0  0  0  0  0  0  0  0
   -2.3783   -3.6821    1.4322 C   0  0  0  0  0  0  0  0  0  0  0  0
   -3.8562   -3.6555    1.1020 C   0  0  0  0  0  0  0  0  0  0  0  0
   -4.0186   -2.6407   -0.0121 C   0  0  0  0  0  0  0  0  0  0  0  0
   -0.8262    1.2916   -0.3235 C   0  0  0  0  0  0  0  0  0  0  0  0
   -1.6294    2.4468   -0.4690 N   0  0  0  0  0  0  0  0  0  0  0  0
   -2.5551    3.0907    0.4298 C   0  0  0  0  0  0  0  0  0  0  0  0
   -2.5055    4.5688    0.0473 C   0  0  0  0  0  0  0  0  0  0  0  0
   -2.0731    4.5961   -1.3758 C   0  0  0  0  0  0  0  0  0  0  0  0
   -1.5946    3.2266   -1.7146 C   0  0  0  0  0  0  0  0  0  0  0  0
    0.5479    1.2905   -0.2734 N   0  0  0  0  0  0  0  0  0  0  0  0
    3.3958    0.6177   -0.0618 C   0  0  0  0  0  0  0  0  0  0  0  0
    4.7093    0.2593    0.0278 C   0  0  0  0  0  0  0  0  0  0  0  0
    7.2821    0.3579    1.0091 H   0  0  0  0  0  0  0  0  0  0  0  0
    7.4013    0.1266   -0.7613 H   0  0  0  0  0  0  0  0  0  0  0  0
    8.3848   -0.8993    0.4006 H   0  0  0  0  0  0  0  0  0  0  0  0
    4.3590   -3.0480    0.3053 H   0  0  0  0  0  0  0  0  0  0  0  0
    1.9662   -2.4389    0.1460 H   0  0  0  0  0  0  0  0  0  0  0  0
   -0.7547   -2.8506    0.2313 H   0  0  0  0  0  0  0  0  0  0  0  0
   -2.0088   -3.8708   -0.6415 H   0  0  0  0  0  0  0  0  0  0  0  0
   -1.9912   -4.7001    1.5853 H   0  0  0  0  0  0  0  0  0  0  0  0
   -2.1772   -3.0277    2.2922 H   0  0  0  0  0  0  0  0  0  0  0  0
   -4.1365   -4.6819    0.7796 H   0  0  0  0  0  0  0  0  0  0  0  0
   -4.4206   -3.3494    2.0087 H   0  0  0  0  0  0  0  0  0  0  0  0
   -4.2361   -3.1629   -0.9639 H   0  0  0  0  0  0  0  0  0  0  0  0
   -4.8215   -1.9058    0.2164 H   0  0  0  0  0  0  0  0  0  0  0  0
   -2.1544    3.0574    1.4767 H   0  0  0  0  0  0  0  0  0  0  0  0
   -3.5881    2.7443    0.3613 H   0  0  0  0  0  0  0  0  0  0  0  0
   -1.8030    5.1378    0.6823 H   0  0  0  0  0  0  0  0  0  0  0  0
   -3.5065    4.9925    0.1983 H   0  0  0  0  0  0  0  0  0  0  0  0
   -1.2517    5.3623   -1.4956 H   0  0  0  0  0  0  0  0  0  0  0  0
   -2.8810    4.9432   -2.0549 H   0  0  0  0  0  0  0  0  0  0  0  0
   -2.2386    2.7782   -2.4865 H   0  0  0  0  0  0  0  0  0  0  0  0
   -0.5489    3.3000   -2.0754 H   0  0  0  0  0  0  0  0  0  0  0  0
    3.1010    1.6711   -0.1681 H   0  0  0  0  0  0  0  0  0  0  0  0
    5.4458    1.0628   -0.0109 H   0  0  0  0  0  0  0  0  0  0  0  0
  1  2  1  0
  2  3  1  0
  3  4  2  0
  4  5  1  0
  5  6  2  0
  6  7  1  0
  7  8  1  0
  8  9  2  0
  9 10  1  0
 10 11  2  0
 10 12  1  0
 12 13  1  0
 13 14  1  0
 14 15  1  0
 15 16  1  0
  9 17  1  0
 17 18  1  0
 18 19  1  0
 19 20  1  0
 20 21  1  0
 21 22  1  0
 17 23  2  0
  6 24  1  0
 24 25  2  0
 25  3  1  0
 23  7  1  0
 16 12  1  0
 22 18  1  0
  1 26  1  0
  1 27  1  0
  1 28  1  0
  4 29  1  0
  5 30  1  0
 13 31  1  0
 13 32  1  0
 14 33  1  0
 14 34  1  0
 15 35  1  0
 15 36  1  0
 16 37  1  0
 16 38  1  0
 19 39  1  0
 19 40  1  0
 20 41  1  0
 20 42  1  0
 21 43  1  0
 21 44  1  0
 22 45  1  0
 22 46  1  0
 24 47  1  0
 25 48  1  0
M  END
