
     RDKit          3D

 67 74  0  0  0  0  0  0  0  0999 V2000
   -2.6490   -3.6304    3.0897 C   0  0  0  0  0  0  0  0  0  0  0  0
   -2.0492   -2.4966    3.5976 C   0  0  0  0  0  0  0  0  0  0  0  0
   -1.3589   -1.6029    2.7853 C   0  0  0  0  0  0  0  0  0  0  0  0
   -1.2620   -1.8411    1.4344 C   0  0  0  0  0  0  0  0  0  0  0  0
   -0.6011   -1.0235    0.5144 N   0  0  0  0  0  0  0  0  0  0  0  0
    0.7972   -1.3832    0.2930 C   0  0  0  0  0  0  0  0  0  0  0  0
    1.2010   -2.6556    0.2031 C   0  0  0  0  0  0  0  0  0  0  0  0
    2.4745   -3.0419   -0.1186 C   0  0  0  0  0  0  0  0  0  0  0  0
    3.3858   -1.9811   -0.3842 C   0  0  0  0  0  0  0  0  0  0  0  0
    4.5519   -2.3812   -1.0401 C   0  0  0  0  0  0  0  0  0  0  0  0
    5.3460   -1.4448   -1.6592 C   0  0  0  0  0  0  0  0  0  0  0  0
    4.9757   -0.1204   -1.6289 C   0  0  0  0  0  0  0  0  0  0  0  0
    3.8354    0.2589   -0.9737 C   0  0  0  0  0  0  0  0  0  0  0  0
    3.0082   -0.6634   -0.3045 C   0  0  0  0  0  0  0  0  0  0  0  0
    1.7109   -0.3308    0.0614 C   0  0  0  0  0  0  0  0  0  0  0  0
    1.2360    0.9906   -0.0661 C   0  0  0  0  0  0  0  0  0  0  0  0
    2.1369    2.0460    0.2172 C   0  0  0  0  0  0  0  0  0  0  0  0
    3.4192    1.7956    0.7288 C   0  0  0  0  0  0  0  0  0  0  0  0
    4.1555    2.8071    1.2986 C   0  0  0  0  0  0  0  0  0  0  0  0
    3.6914    4.0939    1.4114 C   0  0  0  0  0  0  0  0  0  0  0  0
    2.4323    4.3505    0.9323 C   0  0  0  0  0  0  0  0  0  0  0  0
    1.6968    3.3304    0.3615 C   0  0  0  0  0  0  0  0  0  0  0  0
    0.3083    3.6050    0.2666 C   0  0  0  0  0  0  0  0  0  0  0  0
   -0.5361    2.5603    0.0339 C   0  0  0  0  0  0  0  0  0  0  0  0
   -0.0991    1.3451   -0.1186 N   0  0  0  0  0  4  0  0  0  0  0  0
   -1.1251    0.1507   -0.2827 B   0  0  0  0  0  4  0  0  0  0  0  0
   -2.5082    0.5173    0.3633 C   0  0  0  0  0  0  0  0  0  0  0  0
   -2.6165    1.2415    1.5489 C   0  0  0  0  0  0  0  0  0  0  0  0
   -3.8379    1.5468    2.1106 C   0  0  0  0  0  0  0  0  0  0  0  0
   -5.0110    1.1473    1.5216 C   0  0  0  0  0  0  0  0  0  0  0  0
   -4.9421    0.4395    0.3653 C   0  0  0  0  0  0  0  0  0  0  0  0
   -3.7228    0.1357   -0.1937 C   0  0  0  0  0  0  0  0  0  0  0  0
   -1.3575    0.0043   -1.7819 C   0  0  0  0  0  0  0  0  0  0  0  0
   -0.7747   -0.9513   -2.5716 C   0  0  0  0  0  0  0  0  0  0  0  0
   -1.0560   -0.9780   -3.9153 C   0  0  0  0  0  0  0  0  0  0  0  0
   -1.9111   -0.0723   -4.5100 C   0  0  0  0  0  0  0  0  0  0  0  0
   -2.5037    0.8966   -3.7152 C   0  0  0  0  0  0  0  0  0  0  0  0
   -2.2147    0.9129   -2.3742 C   0  0  0  0  0  0  0  0  0  0  0  0
   -1.8786   -2.9952    0.9512 C   0  0  0  0  0  0  0  0  0  0  0  0
   -2.5555   -3.8728    1.7445 C   0  0  0  0  0  0  0  0  0  0  0  0
   -3.1880   -4.3336    3.7075 H   0  0  0  0  0  0  0  0  0  0  0  0
   -2.1224   -2.3009    4.6683 H   0  0  0  0  0  0  0  0  0  0  0  0
   -0.8888   -0.7159    3.1767 H   0  0  0  0  0  0  0  0  0  0  0  0
    0.4970   -3.4665    0.4004 H   0  0  0  0  0  0  0  0  0  0  0  0
    2.7962   -4.0598   -0.1751 H   0  0  0  0  0  0  0  0  0  0  0  0
    4.8116   -3.4424   -1.0449 H   0  0  0  0  0  0  0  0  0  0  0  0
    6.2382   -1.7763   -2.1504 H   0  0  0  0  0  0  0  0  0  0  0  0
    5.6322    0.5671   -2.1432 H   0  0  0  0  0  0  0  0  0  0  0  0
    3.5609    1.2867   -1.2217 H   0  0  0  0  0  0  0  0  0  0  0  0
    3.8366    0.7999    0.9190 H   0  0  0  0  0  0  0  0  0  0  0  0
    5.1613    2.6054    1.6881 H   0  0  0  0  0  0  0  0  0  0  0  0
    4.3084    4.8592    1.8617 H   0  0  0  0  0  0  0  0  0  0  0  0
    2.0244    5.3702    1.0095 H   0  0  0  0  0  0  0  0  0  0  0  0
   -0.0461    4.6164    0.3769 H   0  0  0  0  0  0  0  0  0  0  0  0
   -1.6349    2.7480   -0.0332 H   0  0  0  0  0  0  0  0  0  0  0  0
   -1.7398    1.5755    2.0497 H   0  0  0  0  0  0  0  0  0  0  0  0
   -3.9318    2.1116    3.0353 H   0  0  0  0  0  0  0  0  0  0  0  0
   -5.9731    1.3906    1.9684 H   0  0  0  0  0  0  0  0  0  0  0  0
   -5.8644    0.1217   -0.1035 H   0  0  0  0  0  0  0  0  0  0  0  0
   -3.7576   -0.4383   -1.1098 H   0  0  0  0  0  0  0  0  0  0  0  0
   -0.0927   -1.6781   -2.1136 H   0  0  0  0  0  0  0  0  0  0  0  0
   -0.5777   -1.7499   -4.5204 H   0  0  0  0  0  0  0  0  0  0  0  0
   -2.1053   -0.1308   -5.5812 H   0  0  0  0  0  0  0  0  0  0  0  0
   -3.1690    1.5965   -4.1956 H   0  0  0  0  0  0  0  0  0  0  0  0
   -2.7324    1.7096   -1.8201 H   0  0  0  0  0  0  0  0  0  0  0  0
   -1.8233   -3.2170   -0.1227 H   0  0  0  0  0  0  0  0  0  0  0  0
   -3.0116   -4.7584    1.2779 H   0  0  0  0  0  0  0  0  0  0  0  0
  1  2  2  0
  2  3  1  0
  3  4  2  0
  4  5  1  0
  5  6  1  0
  6  7  2  0
  7  8  1  0
  8  9  2  0
  9 10  1  0
 10 11  2  0
 11 12  1  0
 12 13  2  0
 13 14  1  0
 14 15  2  0
 15 16  1  0
 16 17  2  0
 17 18  1  0
 18 19  2  0
 19 20  1  0
 20 21  2  0
 21 22  1  0
 22 23  2  0
 23 24  1  0
 24 25  2  0
 25 26  1  0
 26 27  1  0
 27 28  2  0
 28 29  1  0
 29 30  2  0
 30 31  1  0
 31 32  2  0
 26 33  1  0
 33 34  2  0
 34 35  1  0
 35 36  2  0
 36 37  1  0
 37 38  2  0
  4 39  1  0
 39 40  2  0
 40  1  1  0
 26  5  1  0
 32 27  1  0
 38 33  1  0
 15  6  1  0
 25 16  1  0
 14  9  1  0
 22 17  1  0
  1 41  1  0
  2 42  1  0
  3 43  1  0
  7 44  1  0
  8 45  1  0
 10 46  1  0
 11 47  1  0
 12 48  1  0
 13 49  1  0
 18 50  1  0
 19 51  1  0
 20 52  1  0
 21 53  1  0
 23 54  1  0
 24 55  1  0
 28 56  1  0
 29 57  1  0
 30 58  1  0
 31 59  1  0
 32 60  1  0
 34 61  1  0
 35 62  1  0
 36 63  1  0
 37 64  1  0
 38 65  1  0
 39 66  1  0
 40 67  1  0
M  CHG  2  25   1  26  -1
M  END
