
     RDKit          3D

 60 63  0  0  0  0  0  0  0  0999 V2000
    9.3502   -2.8216    0.2579 C   0  0  0  0  0  0  0  0  0  0  0  0
    7.9387   -2.7718    0.2233 O   0  0  0  0  0  0  0  0  0  0  0  0
    7.1985   -1.6110    0.2230 C   0  0  0  0  0  0  0  0  0  0  0  0
    7.7893   -0.5116    0.2551 O   0  0  0  0  0  0  0  0  0  0  0  0
    5.7391   -1.7219    0.1847 C   0  0  0  0  0  0  0  0  0  0  0  0
    4.9518   -0.6657    0.1816 C   0  0  0  0  0  0  0  0  0  0  0  0
    3.4906   -0.7386    0.1439 C   0  0  0  0  0  0  0  0  0  0  0  0
    2.6281    0.2671    0.1383 C   0  0  0  0  0  0  0  0  0  0  0  0
    1.2759   -0.2956    0.0954 C   0  0  0  0  0  0  0  0  0  0  0  0
    0.0600    0.1987    0.0676 C   0  0  0  0  0  0  0  0  0  0  0  0
   -0.0892    1.6645    0.0765 C   0  0  0  0  0  0  0  0  0  0  0  0
   -0.8116    2.2280    1.0958 C   0  0  0  0  0  0  0  0  0  0  0  0
   -1.4021    1.4636    2.2286 C   0  0  0  0  0  0  0  0  0  0  0  0
   -1.0190    3.6101    1.1335 C   0  0  0  0  0  0  0  0  0  0  0  0
   -0.5059    4.4310    0.1557 C   0  0  0  0  0  0  0  0  0  0  0  0
   -0.7456    5.8880    0.2294 C   0  0  0  0  0  0  0  0  0  0  0  0
    0.2114    3.8516   -0.8515 C   0  0  0  0  0  0  0  0  0  0  0  0
    0.4181    2.4787   -0.8915 C   0  0  0  0  0  0  0  0  0  0  0  0
    1.1851    1.9337   -2.0342 C   0  0  0  0  0  0  0  0  0  0  0  0
   -1.1413   -0.6312    0.0115 C   0  0  0  0  0  0  0  0  0  0  0  0
   -2.5027   -0.2990   -0.0458 C   0  0  0  0  0  0  0  0  0  0  0  0
   -3.2338   -1.4594   -0.1041 C   0  0  0  0  0  0  0  0  0  0  0  0
   -4.6738   -1.6419   -0.1753 C   0  0  0  0  0  0  0  0  0  0  0  0
   -5.5226   -0.6277   -0.1940 C   0  0  0  0  0  0  0  0  0  0  0  0
   -6.9657   -0.8819   -0.2669 C   0  0  0  0  0  0  0  0  0  0  0  0
   -7.8065    0.0417   -0.2872 O   0  0  0  0  0  0  0  0  0  0  0  0
   -7.4545   -2.1810   -0.3168 O   0  0  0  0  0  0  0  0  0  0  0  0
   -8.8264   -2.4943   -0.3876 C   0  0  0  0  0  0  0  0  0  0  0  0
   -2.3156   -2.4807   -0.0823 C   0  0  0  0  0  0  0  0  0  0  0  0
   -1.0489   -1.9570   -0.0120 N   0  0  0  0  0  0  0  0  0  0  0  0
    0.2855   -2.6793    0.0343 B   0  0  0  0  0  4  0  0  0  0  0  0
    0.4812   -3.4852   -1.1749 F   0  0  0  0  0  0  0  0  0  0  0  0
    0.3208   -3.5291    1.2142 F   0  0  0  0  0  0  0  0  0  0  0  0
    1.4424   -1.6934    0.0781 N   0  0  0  0  0  4  0  0  0  0  0  0
    2.7008   -1.9618    0.1053 C   0  0  0  0  0  0  0  0  0  0  0  0
    9.6502   -3.6883   -0.3679 H   0  0  0  0  0  0  0  0  0  0  0  0
    9.8271   -1.9191   -0.1740 H   0  0  0  0  0  0  0  0  0  0  0  0
    9.7193   -3.0473    1.2825 H   0  0  0  0  0  0  0  0  0  0  0  0
    5.2593   -2.6820    0.1575 H   0  0  0  0  0  0  0  0  0  0  0  0
    5.4014    0.3093    0.2083 H   0  0  0  0  0  0  0  0  0  0  0  0
    2.8863    1.3117    0.1671 H   0  0  0  0  0  0  0  0  0  0  0  0
   -2.4880    1.5431    2.1840 H   0  0  0  0  0  0  0  0  0  0  0  0
   -1.0005    0.4375    2.3132 H   0  0  0  0  0  0  0  0  0  0  0  0
   -1.1054    1.9872    3.1858 H   0  0  0  0  0  0  0  0  0  0  0  0
   -1.5911    4.0499    1.9408 H   0  0  0  0  0  0  0  0  0  0  0  0
   -1.2833    6.2595   -0.6797 H   0  0  0  0  0  0  0  0  0  0  0  0
    0.2381    6.3926    0.3310 H   0  0  0  0  0  0  0  0  0  0  0  0
   -1.3574    6.1653    1.0883 H   0  0  0  0  0  0  0  0  0  0  0  0
    0.6212    4.4828   -1.6267 H   0  0  0  0  0  0  0  0  0  0  0  0
    0.7559    2.4434   -2.9429 H   0  0  0  0  0  0  0  0  0  0  0  0
    0.9873    0.8430   -2.1649 H   0  0  0  0  0  0  0  0  0  0  0  0
    2.2443    2.1989   -1.9706 H   0  0  0  0  0  0  0  0  0  0  0  0
   -2.9157    0.6804   -0.0513 H   0  0  0  0  0  0  0  0  0  0  0  0
   -5.1091   -2.6299   -0.2162 H   0  0  0  0  0  0  0  0  0  0  0  0
   -5.1669    0.3913   -0.1562 H   0  0  0  0  0  0  0  0  0  0  0  0
   -8.8870   -3.6128   -0.4976 H   0  0  0  0  0  0  0  0  0  0  0  0
   -9.2974   -2.0881   -1.3219 H   0  0  0  0  0  0  0  0  0  0  0  0
   -9.3890   -2.2494    0.5178 H   0  0  0  0  0  0  0  0  0  0  0  0
   -2.5402   -3.5479   -0.1151 H   0  0  0  0  0  0  0  0  0  0  0  0
    3.1382   -2.9471    0.1010 H   0  0  0  0  0  0  0  0  0  0  0  0
  1  2  1  0
  2  3  1  0
  3  4  2  0
  3  5  1  0
  5  6  2  0
  6  7  1  0
  7  8  2  0
  8  9  1  0
  9 10  2  0
 10 11  1  0
 11 12  2  0
 12 13  1  0
 12 14  1  0
 14 15  2  0
 15 16  1  0
 15 17  1  0
 17 18  2  0
 18 19  1  0
 10 20  1  0
 20 21  2  0
 21 22  1  0
 22 23  1  0
 23 24  2  0
 24 25  1  0
 25 26  2  0
 25 27  1  0
 27 28  1  0
 22 29  2  0
 29 30  1  0
 30 31  1  0
 31 32  1  0
 31 33  1  0
 31 34  1  0
 34 35  2  0
 35  7  1  0
 34  9  1  0
 18 11  1  0
 30 20  1  0
  1 36  1  0
  1 37  1  0
  1 38  1  0
  5 39  1  0
  6 40  1  0
  8 41  1  0
 13 42  1  0
 13 43  1  0
 13 44  1  0
 14 45  1  0
 16 46  1  0
 16 47  1  0
 16 48  1  0
 17 49  1  0
 19 50  1  0
 19 51  1  0
 19 52  1  0
 21 53  1  0
 23 54  1  0
 24 55  1  0
 28 56  1  0
 28 57  1  0
 28 58  1  0
 29 59  1  0
 35 60  1  0
M  CHG  2  31  -1  34   1
M  END
