
     RDKit          3D

 35 38  0  0  0  0  0  0  0  0999 V2000
   -0.6993    1.3151    0.0701 N   0  0  0  0  0  0  0  0  0  0  0  0
   -0.8338   -0.0826    0.2366 C   0  0  0  0  0  0  0  0  0  0  0  0
    0.2465   -0.8958    0.4793 C   0  0  0  0  0  0  0  0  0  0  0  0
    1.5228   -0.2665    0.5574 N   0  0  0  0  0  0  0  0  0  0  0  0
    2.4434   -0.4138   -0.2709 N   0  0  0  0  0  0  0  0  0  0  0  0
    3.7128    0.1968   -0.2156 C   0  0  0  0  0  0  0  0  0  0  0  0
    4.0162    1.3850   -0.8461 C   0  0  0  0  0  0  0  0  0  0  0  0
    5.2686    1.9483   -0.7674 C   0  0  0  0  0  0  0  0  0  0  0  0
    6.2182    1.2956   -0.0409 C   0  0  0  0  0  0  0  0  0  0  0  0
    5.9731    0.1036    0.6118 C   0  0  0  0  0  0  0  0  0  0  0  0
    4.7041   -0.4235    0.5051 C   0  0  0  0  0  0  0  0  0  0  0  0
    4.3486   -1.9328    1.3162 Cl  0  0  0  0  0  0  0  0  0  0  0  0
    0.0709   -2.2487    0.6347 C   0  0  0  0  0  0  0  0  0  0  0  0
    1.0848   -2.9714    0.8571 O   0  0  0  0  0  0  0  0  0  0  0  0
   -1.1714   -2.7319    0.5416 N   0  0  0  0  0  0  0  0  0  0  0  0
   -2.2306   -1.9578    0.3067 C   0  0  0  0  0  0  0  0  0  0  0  0
   -3.5445   -2.2829    0.1839 N   0  0  0  0  0  0  0  0  0  0  0  0
   -4.2313   -1.1582   -0.0501 C   0  0  0  0  0  0  0  0  0  0  0  0
   -5.5468   -0.8219   -0.2599 C   0  0  0  0  0  0  0  0  0  0  0  0
   -5.9483    0.4761   -0.4807 C   0  0  0  0  0  0  0  0  0  0  0  0
   -5.0075    1.4819   -0.4942 C   0  0  0  0  0  0  0  0  0  0  0  0
   -3.6647    1.1800   -0.2855 C   0  0  0  0  0  0  0  0  0  0  0  0
   -3.2995   -0.1296   -0.0677 C   0  0  0  0  0  0  0  0  0  0  0  0
   -2.0526   -0.6333    0.1553 N   0  0  0  0  0  0  0  0  0  0  0  0
   -0.7002    1.9975    0.8744 H   0  0  0  0  0  0  0  0  0  0  0  0
   -0.5950    1.6628   -0.9131 H   0  0  0  0  0  0  0  0  0  0  0  0
    3.2681    1.8955   -1.4162 H   0  0  0  0  0  0  0  0  0  0  0  0
    5.4960    2.8714   -1.2600 H   0  0  0  0  0  0  0  0  0  0  0  0
    7.2187    1.7125    0.0424 H   0  0  0  0  0  0  0  0  0  0  0  0
    6.7156   -0.4258    1.1917 H   0  0  0  0  0  0  0  0  0  0  0  0
   -1.3197   -3.7631    0.6583 H   0  0  0  0  0  0  0  0  0  0  0  0
   -6.2690   -1.6125   -0.2471 H   0  0  0  0  0  0  0  0  0  0  0  0
   -6.9966    0.7287   -0.6458 H   0  0  0  0  0  0  0  0  0  0  0  0
   -5.2704    2.5337   -0.6653 H   0  0  0  0  0  0  0  0  0  0  0  0
   -2.9272    1.9677   -0.2960 H   0  0  0  0  0  0  0  0  0  0  0  0
  1  2  1  0
  2  3  2  0
  3  4  1  0
  4  5  2  0
  5  6  1  0
  6  7  2  0
  7  8  1  0
  8  9  2  0
  9 10  1  0
 10 11  2  0
 11 12  1  0
  3 13  1  0
 13 14  2  0
 13 15  1  0
 15 16  1  0
 16 17  2  0
 17 18  1  0
 18 19  2  0
 19 20  1  0
 20 21  2  0
 21 22  1  0
 22 23  2  0
 23 24  1  0
 24  2  1  0
 11  6  1  0
 24 16  1  0
 23 18  1  0
  1 25  1  0
  1 26  1  0
  7 27  1  0
  8 28  1  0
  9 29  1  0
 10 30  1  0
 15 31  1  0
 19 32  1  0
 20 33  1  0
 21 34  1  0
 22 35  1  0
M  END
