
     RDKit          3D

 52 56  0  0  0  0  0  0  0  0999 V2000
    4.8085    0.0599   -4.5045 O   0  0  0  0  0  0  0  0  0  0  0  0
    4.5532    0.0336   -3.2813 C   0  0  0  0  0  0  0  0  0  0  0  0
    5.4019    0.0065   -2.1859 O   0  0  0  0  0  0  0  0  0  0  0  0
    4.6565   -0.0170   -1.0018 C   0  0  0  0  0  0  0  0  0  0  0  0
    5.2874   -0.0459    0.3130 C   0  0  0  0  0  0  0  0  0  0  0  0
    6.6557   -0.0491    0.4691 C   0  0  0  0  0  0  0  0  0  0  0  0
    7.3008   -0.0680    1.6838 C   0  0  0  0  0  0  0  0  0  0  0  0
    6.5146   -0.0854    2.8335 C   0  0  0  0  0  0  0  0  0  0  0  0
    5.1422   -0.0833    2.7380 C   0  0  0  0  0  0  0  0  0  0  0  0
    4.5501   -0.0638    1.4876 C   0  0  0  0  0  0  0  0  0  0  0  0
    3.3871   -0.0073   -1.2885 N   0  0  0  0  0  0  0  0  0  0  0  0
    3.1947    0.0250   -2.6950 C   0  0  0  0  0  0  0  0  0  0  0  0
    2.0464    0.0670   -3.3022 C   0  0  0  0  0  0  0  0  0  0  0  0
    0.8145    0.0488   -2.5407 C   0  0  0  0  0  0  0  0  0  0  0  0
   -0.2413    0.9017   -2.7418 C   0  0  0  0  0  0  0  0  0  0  0  0
   -1.4152    0.8715   -2.0404 C   0  0  0  0  0  0  0  0  0  0  0  0
   -1.5902   -0.0726   -1.0446 C   0  0  0  0  0  0  0  0  0  0  0  0
   -2.7343    0.0131   -0.2246 N   0  0  0  0  0  0  0  0  0  0  0  0
   -3.6372   -1.0638   -0.1156 C   0  0  0  0  0  0  0  0  0  0  0  0
   -4.9938   -0.7151   -0.1930 C   0  0  0  0  0  0  0  0  0  0  0  0
   -6.0086   -1.6273   -0.1140 C   0  0  0  0  0  0  0  0  0  0  0  0
   -5.6784   -2.9630    0.0513 C   0  0  0  0  0  0  0  0  0  0  0  0
   -4.3687   -3.3420    0.1310 C   0  0  0  0  0  0  0  0  0  0  0  0
   -3.3597   -2.3668    0.0442 C   0  0  0  0  0  0  0  0  0  0  0  0
   -2.9771    1.1134    0.6699 C   0  0  0  0  0  0  0  0  0  0  0  0
   -2.8078    2.4168    0.3925 C   0  0  0  0  0  0  0  0  0  0  0  0
   -3.0861    3.4062    1.3683 C   0  0  0  0  0  0  0  0  0  0  0  0
   -3.5313    3.0282    2.6074 C   0  0  0  0  0  0  0  0  0  0  0  0
   -3.7118    1.6869    2.9140 C   0  0  0  0  0  0  0  0  0  0  0  0
   -3.4299    0.7522    1.9329 C   0  0  0  0  0  0  0  0  0  0  0  0
   -0.5510   -0.9437   -0.8169 C   0  0  0  0  0  0  0  0  0  0  0  0
    0.6509   -0.8936   -1.5552 C   0  0  0  0  0  0  0  0  0  0  0  0
    7.2804   -0.0342   -0.4194 H   0  0  0  0  0  0  0  0  0  0  0  0
    8.3601   -0.0685    1.7857 H   0  0  0  0  0  0  0  0  0  0  0  0
    6.9952   -0.1001    3.8051 H   0  0  0  0  0  0  0  0  0  0  0  0
    4.5308   -0.0970    3.6532 H   0  0  0  0  0  0  0  0  0  0  0  0
    3.4848   -0.0623    1.4403 H   0  0  0  0  0  0  0  0  0  0  0  0
    2.0360    0.1158   -4.3809 H   0  0  0  0  0  0  0  0  0  0  0  0
   -0.1071    1.6459   -3.5209 H   0  0  0  0  0  0  0  0  0  0  0  0
   -2.2358    1.5677   -2.3101 H   0  0  0  0  0  0  0  0  0  0  0  0
   -5.2558    0.3173   -0.3216 H   0  0  0  0  0  0  0  0  0  0  0  0
   -7.0476   -1.3091   -0.1790 H   0  0  0  0  0  0  0  0  0  0  0  0
   -6.4803   -3.6791    0.1134 H   0  0  0  0  0  0  0  0  0  0  0  0
   -4.0791   -4.3709    0.2579 H   0  0  0  0  0  0  0  0  0  0  0  0
   -2.3734   -2.7452    0.1197 H   0  0  0  0  0  0  0  0  0  0  0  0
   -2.4479    2.7209   -0.5683 H   0  0  0  0  0  0  0  0  0  0  0  0
   -2.9197    4.4368    1.0591 H   0  0  0  0  0  0  0  0  0  0  0  0
   -3.7397    3.8110    3.3506 H   0  0  0  0  0  0  0  0  0  0  0  0
   -4.0618    1.4414    3.8944 H   0  0  0  0  0  0  0  0  0  0  0  0
   -3.5823   -0.3079    2.1988 H   0  0  0  0  0  0  0  0  0  0  0  0
   -0.6000   -1.6807   -0.0295 H   0  0  0  0  0  0  0  0  0  0  0  0
    1.4010   -1.6247   -1.2947 H   0  0  0  0  0  0  0  0  0  0  0  0
  1  2  2  0
  2  3  1  0
  3  4  1  0
  4  5  1  0
  5  6  2  0
  6  7  1  0
  7  8  2  0
  8  9  1  0
  9 10  2  0
  4 11  2  0
 11 12  1  0
 12 13  2  0
 13 14  1  0
 14 15  2  0
 15 16  1  0
 16 17  2  0
 17 18  1  0
 18 19  1  0
 19 20  2  0
 20 21  1  0
 21 22  2  0
 22 23  1  0
 23 24  2  0
 18 25  1  0
 25 26  2  0
 26 27  1  0
 27 28  2  0
 28 29  1  0
 29 30  2  0
 17 31  1  0
 31 32  2  0
 12  2  1  0
 32 14  1  0
 10  5  1  0
 24 19  1  0
 30 25  1  0
  6 33  1  0
  7 34  1  0
  8 35  1  0
  9 36  1  0
 10 37  1  0
 13 38  1  0
 15 39  1  0
 16 40  1  0
 20 41  1  0
 21 42  1  0
 22 43  1  0
 23 44  1  0
 24 45  1  0
 26 46  1  0
 27 47  1  0
 28 48  1  0
 29 49  1  0
 30 50  1  0
 31 51  1  0
 32 52  1  0
M  END
