
     RDKit          3D

 43 46  0  0  0  0  0  0  0  0999 V2000
   -6.6655   -0.8854    0.1480 C   0  0  0  0  0  0  0  0  0  0  0  0
   -5.6492    0.1184    0.0873 N   0  0  0  0  0  0  0  0  0  0  0  0
   -6.0548    1.5100   -0.0167 C   0  0  0  0  0  0  0  0  0  0  0  0
   -4.2618   -0.1623    0.1243 C   0  0  0  0  0  0  0  0  0  0  0  0
   -3.7661   -1.4459    0.2433 C   0  0  0  0  0  0  0  0  0  0  0  0
   -2.4351   -1.7364    0.2740 C   0  0  0  0  0  0  0  0  0  0  0  0
   -1.4979   -0.7130    0.1830 C   0  0  0  0  0  0  0  0  0  0  0  0
   -0.0825   -1.0792    0.2185 C   0  0  0  0  0  0  0  0  0  0  0  0
    0.8780   -0.0905    0.1068 C   0  0  0  0  0  0  0  0  0  0  0  0
    2.2136   -0.4368    0.1392 C   0  0  0  0  0  0  0  0  0  0  0  0
    2.5384   -1.7554    0.2821 C   0  0  0  0  0  0  0  0  0  0  0  0
    3.8523   -2.1349    0.3158 C   0  0  0  0  0  0  0  0  0  0  0  0
    4.8241   -1.1422    0.2009 C   0  0  0  0  0  0  0  0  0  0  0  0
    4.5039    0.1901    0.0571 C   0  0  0  0  0  0  0  0  0  0  0  0
    5.4898    1.1342   -0.0618 C   0  0  0  0  0  0  0  0  0  0  0  0
    6.8517    0.8371   -0.0395 N   0  0  0  0  0  4  0  0  0  0  0  0
    7.6355    1.5927   -0.6975 O   0  0  0  0  0  0  0  0  0  0  0  0
    7.4178   -0.1800    0.6161 O   0  0  0  0  0  1  0  0  0  0  0  0
    5.1181    2.4766   -0.2190 C   0  0  0  0  0  0  0  0  0  0  0  0
    3.7903    2.8224   -0.2497 C   0  0  0  0  0  0  0  0  0  0  0  0
    2.7887    1.8793   -0.1296 C   0  0  0  0  0  0  0  0  0  0  0  0
    3.1607    0.5659    0.0233 C   0  0  0  0  0  0  0  0  0  0  0  0
    1.5188   -2.7040    0.3899 C   0  0  0  0  0  0  0  0  0  0  0  0
    1.8533   -3.9102    0.5205 O   0  0  0  0  0  0  0  0  0  0  0  0
    0.2731   -2.3165    0.3525 O   0  0  0  0  0  0  0  0  0  0  0  0
   -1.9475    0.5665    0.0648 C   0  0  0  0  0  0  0  0  0  0  0  0
   -3.3100    0.8295    0.0367 C   0  0  0  0  0  0  0  0  0  0  0  0
   -7.0486   -0.9730    1.2021 H   0  0  0  0  0  0  0  0  0  0  0  0
   -6.3632   -1.8591   -0.2768 H   0  0  0  0  0  0  0  0  0  0  0  0
   -7.5526   -0.4991   -0.4332 H   0  0  0  0  0  0  0  0  0  0  0  0
   -5.8737    2.0341    0.9649 H   0  0  0  0  0  0  0  0  0  0  0  0
   -7.1337    1.6013   -0.2143 H   0  0  0  0  0  0  0  0  0  0  0  0
   -5.5030    1.9942   -0.8393 H   0  0  0  0  0  0  0  0  0  0  0  0
   -4.4638   -2.2745    0.3178 H   0  0  0  0  0  0  0  0  0  0  0  0
   -2.0546   -2.7641    0.3693 H   0  0  0  0  0  0  0  0  0  0  0  0
    0.6090    0.9433   -0.0051 H   0  0  0  0  0  0  0  0  0  0  0  0
    4.1195   -3.1792    0.4279 H   0  0  0  0  0  0  0  0  0  0  0  0
    5.8314   -1.5112    0.2224 H   0  0  0  0  0  0  0  0  0  0  0  0
    5.9010    3.2142   -0.3129 H   0  0  0  0  0  0  0  0  0  0  0  0
    3.5658    3.8874   -0.3744 H   0  0  0  0  0  0  0  0  0  0  0  0
    1.7987    2.2652   -0.1672 H   0  0  0  0  0  0  0  0  0  0  0  0
   -1.2487    1.4154   -0.0090 H   0  0  0  0  0  0  0  0  0  0  0  0
   -3.6209    1.8750   -0.0589 H   0  0  0  0  0  0  0  0  0  0  0  0
  1  2  1  0
  2  3  1  0
  2  4  1  0
  4  5  2  0
  5  6  1  0
  6  7  2  0
  7  8  1  0
  8  9  2  0
  9 10  1  0
 10 11  2  0
 11 12  1  0
 12 13  2  0
 13 14  1  0
 14 15  2  0
 15 16  1  0
 16 17  2  0
 16 18  1  0
 15 19  1  0
 19 20  2  0
 20 21  1  0
 21 22  2  0
 11 23  1  0
 23 24  2  0
 23 25  1  0
  7 26  1  0
 26 27  2  0
 27  4  1  0
 25  8  1  0
 22 10  1  0
 22 14  1  0
  1 28  1  0
  1 29  1  0
  1 30  1  0
  3 31  1  0
  3 32  1  0
  3 33  1  0
  5 34  1  0
  6 35  1  0
  9 36  1  0
 12 37  1  0
 13 38  1  0
 19 39  1  0
 20 40  1  0
 21 41  1  0
 26 42  1  0
 27 43  1  0
M  CHG  2  16   1  18  -1
M  END
