
     RDKit          3D

 15 16  0  0  0  0  0  0  0  0999 V2000
   -1.9004    0.3100   -0.0897 C   0  0  0  0  0  0  0  0  0  0  0  0
   -1.6582   -1.0319   -0.0598 C   0  0  0  0  0  0  0  0  0  0  0  0
   -0.3664   -1.4928    0.0047 C   0  0  0  0  0  0  0  0  0  0  0  0
    0.6536   -0.5606    0.0373 C   0  0  0  0  0  0  0  0  0  0  0  0
    2.0033   -0.7096    0.1000 N   0  0  0  0  0  0  0  0  0  0  0  0
    2.5584    0.4863    0.1080 N   0  0  0  0  0  0  0  0  0  0  0  0
    1.6343    1.4584    0.0527 C   0  0  0  0  0  0  0  0  0  0  0  0
    0.4122    0.7967    0.0072 C   0  0  0  0  0  0  0  0  0  0  0  0
   -0.9030    1.2532   -0.0583 C   0  0  0  0  0  0  0  0  0  0  0  0
   -2.9420    0.6335   -0.1411 H   0  0  0  0  0  0  0  0  0  0  0  0
   -2.4651   -1.7808   -0.0855 H   0  0  0  0  0  0  0  0  0  0  0  0
   -0.1645   -2.5497    0.0287 H   0  0  0  0  0  0  0  0  0  0  0  0
    2.4529   -1.6544    0.1336 H   0  0  0  0  0  0  0  0  0  0  0  0
    1.7519    2.5270    0.0429 H   0  0  0  0  0  0  0  0  0  0  0  0
   -1.0670    2.3149   -0.0807 H   0  0  0  0  0  0  0  0  0  0  0  0
  1  2  2  0
  2  3  1  0
  3  4  2  0
  4  5  1  0
  5  6  1  0
  6  7  2  0
  7  8  1  0
  8  9  2  0
  9  1  1  0
  8  4  1  0
  1 10  1  0
  2 11  1  0
  3 12  1  0
  5 13  1  0
  7 14  1  0
  9 15  1  0
M  END
