
     RDKit          3D

 71 77  0  0  0  0  0  0  0  0999 V2000
    9.0137    0.4165   -0.5840 C   0  0  0  0  0  0  0  0  0  0  0  0
    8.0408   -0.5400   -0.9119 C   0  0  0  0  0  0  0  0  0  0  0  0
    6.7146   -0.2777   -0.6577 C   0  0  0  0  0  0  0  0  0  0  0  0
    6.4322    0.9336   -0.0864 C   0  0  0  0  0  0  0  0  0  0  0  0
    5.0764    1.0486    0.1048 C   0  0  0  0  0  0  0  0  0  0  0  0
    4.6368    2.2298    0.6789 C   0  0  0  0  0  0  0  0  0  0  0  0
    5.5605    3.2261    1.0296 C   0  0  0  0  0  0  0  0  0  0  0  0
    6.9092    3.0829    0.8265 C   0  0  0  0  0  0  0  0  0  0  0  0
    7.3475    1.9049    0.2540 C   0  0  0  0  0  0  0  0  0  0  0  0
    8.6848    1.6302   -0.0068 C   0  0  0  0  0  0  0  0  0  0  0  0
    4.4843   -0.1909   -0.3890 C   0  0  0  0  0  0  0  0  0  0  0  0
    3.0929   -0.4731   -0.3722 N   0  0  0  0  0  0  0  0  0  0  0  0
    2.5934   -1.5454    0.4370 C   0  0  0  0  0  0  0  0  0  0  0  0
    2.0105   -2.6731   -0.3897 C   0  0  0  0  0  0  0  0  0  0  0  0
    1.5240   -3.6433    0.4513 O   0  0  0  0  0  0  0  0  0  0  0  0
    0.2019   -3.4399    0.8415 C   0  0  0  0  0  0  0  0  0  0  0  0
   -0.7412   -3.8280   -0.2785 C   0  0  0  0  0  0  0  0  0  0  0  0
   -2.0599   -3.7402    0.0848 O   0  0  0  0  0  0  0  0  0  0  0  0
   -2.5738   -2.4495    0.1123 C   0  0  0  0  0  0  0  0  0  0  0  0
   -2.9138   -1.9422   -1.2708 C   0  0  0  0  0  0  0  0  0  0  0  0
   -3.2523   -0.5433   -1.2683 N   0  0  0  0  0  0  0  0  0  0  0  0
   -4.5603   -0.1094   -0.9570 C   0  0  0  0  0  0  0  0  0  0  0  0
   -5.6868   -0.5317   -1.4910 N   0  0  0  0  0  0  0  0  0  0  0  0
   -6.7925    0.1590   -0.9015 C   0  0  0  0  0  0  0  0  0  0  0  0
   -8.1652    0.1638   -1.0290 C   0  0  0  0  0  0  0  0  0  0  0  0
   -8.9361    1.0224   -0.2383 C   0  0  0  0  0  0  0  0  0  0  0  0
   -8.3630    1.8892    0.6903 C   0  0  0  0  0  0  0  0  0  0  0  0
   -6.9895    1.8748    0.8082 C   0  0  0  0  0  0  0  0  0  0  0  0
   -6.2881    2.6943    1.7015 C   0  0  0  0  0  0  0  0  0  0  0  0
   -4.9107    2.5945    1.7336 C   0  0  0  0  0  0  0  0  0  0  0  0
   -4.1902    1.7149    0.9168 C   0  0  0  0  0  0  0  0  0  0  0  0
   -4.8873    0.9116    0.0402 C   0  0  0  0  0  0  0  0  0  0  0  0
   -6.2595    1.0234    0.0207 C   0  0  0  0  0  0  0  0  0  0  0  0
   -2.2405    0.4297   -1.5900 C   0  0  0  0  0  0  0  0  0  0  0  0
   -0.9903    0.2641   -0.7759 C   0  0  0  0  0  0  0  0  0  0  0  0
   -0.0408    1.1881   -1.2031 O   0  0  0  0  0  0  0  0  0  0  0  0
    1.0978    0.9807   -0.3921 C   0  0  0  0  0  0  0  0  0  0  0  0
    2.1987    0.3242   -1.1732 C   0  0  0  0  0  0  0  0  0  0  0  0
    5.4589   -0.9568   -0.8323 N   0  0  0  0  0  0  0  0  0  0  0  0
   10.0412    0.1858   -0.7932 H   0  0  0  0  0  0  0  0  0  0  0  0
    8.2964   -1.4883   -1.3626 H   0  0  0  0  0  0  0  0  0  0  0  0
    3.5836    2.3408    0.8371 H   0  0  0  0  0  0  0  0  0  0  0  0
    5.1303    4.1308    1.4790 H   0  0  0  0  0  0  0  0  0  0  0  0
    7.6021    3.8406    1.0944 H   0  0  0  0  0  0  0  0  0  0  0  0
    9.4077    2.3676    0.2487 H   0  0  0  0  0  0  0  0  0  0  0  0
    1.8929   -1.1705    1.2052 H   0  0  0  0  0  0  0  0  0  0  0  0
    3.4364   -2.0148    1.0225 H   0  0  0  0  0  0  0  0  0  0  0  0
    2.8834   -3.1263   -0.9365 H   0  0  0  0  0  0  0  0  0  0  0  0
    1.3143   -2.3261   -1.1516 H   0  0  0  0  0  0  0  0  0  0  0  0
    0.0056   -2.3879    1.1023 H   0  0  0  0  0  0  0  0  0  0  0  0
    0.0025   -4.1321    1.6860 H   0  0  0  0  0  0  0  0  0  0  0  0
   -0.5567   -3.1299   -1.1197 H   0  0  0  0  0  0  0  0  0  0  0  0
   -0.5087   -4.8541   -0.6358 H   0  0  0  0  0  0  0  0  0  0  0  0
   -3.5250   -2.5245    0.7172 H   0  0  0  0  0  0  0  0  0  0  0  0
   -1.8956   -1.8117    0.6751 H   0  0  0  0  0  0  0  0  0  0  0  0
   -2.1091   -2.1614   -2.0008 H   0  0  0  0  0  0  0  0  0  0  0  0
   -3.7836   -2.5758   -1.6151 H   0  0  0  0  0  0  0  0  0  0  0  0
   -8.6043   -0.5098   -1.7501 H   0  0  0  0  0  0  0  0  0  0  0  0
  -10.0057    1.0216   -0.3420 H   0  0  0  0  0  0  0  0  0  0  0  0
   -8.9394    2.5517    1.3021 H   0  0  0  0  0  0  0  0  0  0  0  0
   -6.8455    3.3687    2.3273 H   0  0  0  0  0  0  0  0  0  0  0  0
   -4.3509    3.2314    2.4291 H   0  0  0  0  0  0  0  0  0  0  0  0
   -3.1290    1.6338    0.9373 H   0  0  0  0  0  0  0  0  0  0  0  0
   -1.9609    0.3358   -2.6657 H   0  0  0  0  0  0  0  0  0  0  0  0
   -2.5917    1.4724   -1.4389 H   0  0  0  0  0  0  0  0  0  0  0  0
   -1.1433    0.4348    0.2987 H   0  0  0  0  0  0  0  0  0  0  0  0
   -0.5744   -0.7365   -1.0125 H   0  0  0  0  0  0  0  0  0  0  0  0
    1.3780    2.0207   -0.0508 H   0  0  0  0  0  0  0  0  0  0  0  0
    0.8401    0.4371    0.5328 H   0  0  0  0  0  0  0  0  0  0  0  0
    2.7745    1.0740   -1.7840 H   0  0  0  0  0  0  0  0  0  0  0  0
    1.6975   -0.3207   -1.9501 H   0  0  0  0  0  0  0  0  0  0  0  0
  1  2  2  0
  2  3  1  0
  3  4  2  0
  4  5  1  0
  5  6  2  0
  6  7  1  0
  7  8  2  0
  8  9  1  0
  9 10  2  0
  5 11  1  0
 11 12  1  0
 12 13  1  0
 13 14  1  0
 14 15  1  0
 15 16  1  0
 16 17  1  0
 17 18  1  0
 18 19  1  0
 19 20  1  0
 20 21  1  0
 21 22  1  0
 22 23  2  0
 23 24  1  0
 24 25  1  0
 25 26  2  0
 26 27  1  0
 27 28  2  0
 28 29  1  0
 29 30  2  0
 30 31  1  0
 31 32  2  0
 32 33  1  0
 21 34  1  0
 34 35  1  0
 35 36  1  0
 36 37  1  0
 37 38  1  0
 11 39  2  0
 10  1  1  0
 38 12  1  0
 39  3  1  0
  9  4  1  0
 32 22  1  0
 33 24  2  0
 33 28  1  0
  1 40  1  0
  2 41  1  0
  6 42  1  0
  7 43  1  0
  8 44  1  0
 10 45  1  0
 13 46  1  0
 13 47  1  0
 14 48  1  0
 14 49  1  0
 16 50  1  0
 16 51  1  0
 17 52  1  0
 17 53  1  0
 19 54  1  0
 19 55  1  0
 20 56  1  0
 20 57  1  0
 25 58  1  0
 26 59  1  0
 27 60  1  0
 29 61  1  0
 30 62  1  0
 31 63  1  0
 34 64  1  0
 34 65  1  0
 35 66  1  0
 35 67  1  0
 37 68  1  0
 37 69  1  0
 38 70  1  0
 38 71  1  0
M  END
