
     RDKit          3D

 59 64  0  0  0  0  0  0  0  0999 V2000
    6.8303   -0.9822    1.0752 C   0  0  0  0  0  0  0  0  0  0  0  0
    5.6720   -1.2772    1.8763 N   0  0  0  0  0  0  0  0  0  0  0  0
    5.8385   -1.8045    3.2080 C   0  0  0  0  0  0  0  0  0  0  0  0
    4.3627   -1.0649    1.3854 C   0  0  0  0  0  0  0  0  0  0  0  0
    4.1476   -0.5949    0.1067 C   0  0  0  0  0  0  0  0  0  0  0  0
    2.8869   -0.3927   -0.3512 C   0  0  0  0  0  0  0  0  0  0  0  0
    1.7307   -0.6380    0.4163 C   0  0  0  0  0  0  0  0  0  0  0  0
    0.3939   -0.5308   -0.0386 C   0  0  0  0  0  0  0  0  0  0  0  0
   -0.1946   -1.7300   -0.3870 N   0  0  0  0  0  0  0  0  0  0  0  0
   -1.4201   -1.8370   -0.8437 C   0  0  0  0  0  0  0  0  0  0  0  0
   -2.2273   -0.7078   -1.0160 C   0  0  0  0  0  0  0  0  0  0  0  0
   -1.6953    0.5125   -0.6986 C   0  0  0  0  0  0  0  0  0  0  0  0
   -0.3633    0.5705   -0.1923 C   0  0  0  0  0  0  0  0  0  0  0  0
    0.0230    1.8890    0.3657 C   0  0  0  0  0  0  0  0  0  0  0  0
    1.2858    2.0270    0.8507 C   0  0  0  0  0  0  0  0  0  0  0  0
    1.6652    3.2747    1.3730 C   0  0  0  0  0  0  0  0  0  0  0  0
    0.7828    4.3242    1.3920 C   0  0  0  0  0  0  0  0  0  0  0  0
    1.1821    5.5887    1.9300 C   0  0  0  0  0  0  0  0  0  0  0  0
    1.4960    6.6029    2.3814 N   0  0  0  0  0  0  0  0  0  0  0  0
   -0.4885    4.1534    0.8942 C   0  0  0  0  0  0  0  0  0  0  0  0
   -0.8793    2.9321    0.3773 C   0  0  0  0  0  0  0  0  0  0  0  0
   -2.3043    2.8303   -0.1021 C   0  0  0  0  0  0  0  0  0  0  0  0
   -2.2634    1.7585   -1.1512 C   0  0  0  0  0  0  0  0  0  0  0  0
   -3.5471   -0.8007   -1.6208 C   0  0  0  0  0  0  0  0  0  0  0  0
   -4.4405    0.2440   -1.5141 C   0  0  0  0  0  0  0  0  0  0  0  0
   -5.7582    0.0016   -1.8909 C   0  0  0  0  0  0  0  0  0  0  0  0
   -6.2160   -1.1974   -2.3498 C   0  0  0  0  0  0  0  0  0  0  0  0
   -7.6201   -1.3694   -2.7226 C   0  0  0  0  0  0  0  0  0  0  0  0
   -8.7112   -1.5124   -3.0296 N   0  0  0  0  0  0  0  0  0  0  0  0
   -5.3119   -2.2222   -2.4433 C   0  0  0  0  0  0  0  0  0  0  0  0
   -3.9977   -2.0347   -2.0882 C   0  0  0  0  0  0  0  0  0  0  0  0
   -2.9966   -3.1162   -2.2706 C   0  0  0  0  0  0  0  0  0  0  0  0
   -2.0455   -3.1517   -1.1279 C   0  0  0  0  0  0  0  0  0  0  0  0
    1.9808   -1.1166    1.7170 C   0  0  0  0  0  0  0  0  0  0  0  0
    3.2574   -1.3200    2.1769 C   0  0  0  0  0  0  0  0  0  0  0  0
    6.8796    0.1428    1.0069 H   0  0  0  0  0  0  0  0  0  0  0  0
    7.7624   -1.3263    1.5780 H   0  0  0  0  0  0  0  0  0  0  0  0
    6.7955   -1.4108    0.0567 H   0  0  0  0  0  0  0  0  0  0  0  0
    5.1955   -2.7328    3.2589 H   0  0  0  0  0  0  0  0  0  0  0  0
    5.4061   -1.1345    3.9773 H   0  0  0  0  0  0  0  0  0  0  0  0
    6.8785   -2.0531    3.4578 H   0  0  0  0  0  0  0  0  0  0  0  0
    5.0482   -0.4070   -0.4810 H   0  0  0  0  0  0  0  0  0  0  0  0
    2.7295   -0.0250   -1.3519 H   0  0  0  0  0  0  0  0  0  0  0  0
    2.0170    1.3164    0.8948 H   0  0  0  0  0  0  0  0  0  0  0  0
    2.6551    3.4387    1.7694 H   0  0  0  0  0  0  0  0  0  0  0  0
   -1.1943    4.9727    0.9040 H   0  0  0  0  0  0  0  0  0  0  0  0
   -2.6172    3.7998   -0.5497 H   0  0  0  0  0  0  0  0  0  0  0  0
   -2.9015    2.5774    0.7838 H   0  0  0  0  0  0  0  0  0  0  0  0
   -1.2831    2.2155   -1.7221 H   0  0  0  0  0  0  0  0  0  0  0  0
   -2.8247    1.8946   -2.0714 H   0  0  0  0  0  0  0  0  0  0  0  0
   -4.2075    1.1615   -1.0708 H   0  0  0  0  0  0  0  0  0  0  0  0
   -6.4586    0.8472   -1.8049 H   0  0  0  0  0  0  0  0  0  0  0  0
   -5.6376   -3.2031   -2.8061 H   0  0  0  0  0  0  0  0  0  0  0  0
   -2.4496   -2.8878   -3.2102 H   0  0  0  0  0  0  0  0  0  0  0  0
   -3.4892   -4.1096   -2.3500 H   0  0  0  0  0  0  0  0  0  0  0  0
   -1.2840   -3.9514   -1.2616 H   0  0  0  0  0  0  0  0  0  0  0  0
   -2.6495   -3.4240   -0.2218 H   0  0  0  0  0  0  0  0  0  0  0  0
    1.1271   -1.3157    2.3348 H   0  0  0  0  0  0  0  0  0  0  0  0
    3.4476   -1.6932    3.1912 H   0  0  0  0  0  0  0  0  0  0  0  0
  1  2  1  0
  2  3  1  0
  2  4  1  0
  4  5  2  0
  5  6  1  0
  6  7  2  0
  7  8  1  0
  8  9  2  0
  9 10  1  0
 10 11  2  0
 11 12  1  0
 12 13  2  0
 13 14  1  0
 14 15  2  0
 15 16  1  0
 16 17  2  0
 17 18  1  0
 18 19  3  0
 17 20  1  0
 20 21  2  0
 21 22  1  0
 22 23  1  0
 11 24  1  0
 24 25  2  0
 25 26  1  0
 26 27  2  0
 27 28  1  0
 28 29  3  0
 27 30  1  0
 30 31  2  0
 31 32  1  0
 32 33  1  0
  7 34  1  0
 34 35  2  0
 35  4  1  0
 13  8  1  0
 21 14  1  0
 31 24  1  0
 33 10  1  0
 23 12  1  0
  1 36  1  0
  1 37  1  0
  1 38  1  0
  3 39  1  0
  3 40  1  0
  3 41  1  0
  5 42  1  0
  6 43  1  0
 15 44  1  0
 16 45  1  0
 20 46  1  0
 22 47  1  0
 22 48  1  0
 23 49  1  0
 23 50  1  0
 25 51  1  0
 26 52  1  0
 30 53  1  0
 32 54  1  0
 32 55  1  0
 33 56  1  0
 33 57  1  0
 34 58  1  0
 35 59  1  0
M  END
