
     RDKit          3D

 52 54  0  0  0  0  0  0  0  0999 V2000
    1.5346    5.8028    1.2682 C   0  0  0  0  0  0  0  0  0  0  0  0
    0.8473    5.0666    0.1573 C   0  0  0  0  0  0  0  0  0  0  0  0
    0.5023    3.6846    0.6314 C   0  0  0  0  0  0  0  0  0  0  0  0
   -0.1822    2.9172   -0.4400 C   0  0  0  0  0  0  0  0  0  0  0  0
   -0.3947    3.4512   -1.5590 O   0  0  0  0  0  0  0  0  0  0  0  0
   -0.6203    1.5559   -0.2398 C   0  0  0  0  0  0  0  0  0  0  0  0
   -1.8960    1.3319    0.2492 C   0  0  0  0  0  0  0  0  0  0  0  0
   -2.2911    0.0277    0.4317 C   0  0  0  0  0  0  0  0  0  0  0  0
   -1.4441   -1.0201    0.1370 C   0  0  0  0  0  0  0  0  0  0  0  0
   -1.8674   -2.3940    0.3318 C   0  0  0  0  0  0  0  0  0  0  0  0
   -1.6713   -2.9688    1.4225 O   0  0  0  0  0  0  0  0  0  0  0  0
   -2.5323   -3.1088   -0.7691 C   0  0  0  0  0  0  0  0  0  0  0  0
   -2.8829   -4.5088   -0.3515 C   0  0  0  0  0  0  0  0  0  0  0  0
   -3.8145   -4.4397    0.8364 C   0  0  0  0  0  0  0  0  0  0  0  0
   -0.1584   -0.7900   -0.3560 C   0  0  0  0  0  0  0  0  0  0  0  0
    0.2360    0.5017   -0.5378 C   0  0  0  0  0  0  0  0  0  0  0  0
    1.5475    0.4575   -1.0337 O   0  0  0  0  0  0  0  0  0  0  0  0
    1.8274   -0.8505   -1.4903 C   0  0  0  0  0  0  0  0  0  0  0  0
    3.2384   -1.2467   -1.2065 C   0  0  0  0  0  0  0  0  0  0  0  0
    3.5135   -1.2114    0.2721 C   0  0  0  0  0  0  0  0  0  0  0  0
    2.6309   -0.8837    1.1059 O   0  0  0  0  0  0  0  0  0  0  0  0
    4.7609   -1.5414    0.7795 O   0  0  0  0  0  0  0  0  0  0  0  0
    5.0731   -1.5253    2.1535 C   0  0  0  0  0  0  0  0  0  0  0  0
    1.5813   -0.9795   -2.9403 C   0  0  0  0  0  0  0  0  0  0  0  0
    1.7798   -2.0769   -3.5096 O   0  0  0  0  0  0  0  0  0  0  0  0
    1.1332    0.0866   -3.6975 O   0  0  0  0  0  0  0  0  0  0  0  0
    0.8893   -1.6092   -0.7324 O   0  0  0  0  0  0  0  0  0  0  0  0
   -3.6030    0.1029    0.9269 O   0  0  0  0  0  0  0  0  0  0  0  0
   -4.0856    1.4112    0.7233 C   0  0  0  0  0  0  0  0  0  0  0  0
   -2.9197    2.2007    0.6153 O   0  0  0  0  0  0  0  0  0  0  0  0
    2.6250    5.7340    1.2375 H   0  0  0  0  0  0  0  0  0  0  0  0
    1.1974    5.4725    2.2745 H   0  0  0  0  0  0  0  0  0  0  0  0
    1.2876    6.8941    1.1625 H   0  0  0  0  0  0  0  0  0  0  0  0
    1.4869    5.0414   -0.7455 H   0  0  0  0  0  0  0  0  0  0  0  0
   -0.1020    5.6097   -0.0951 H   0  0  0  0  0  0  0  0  0  0  0  0
    1.4648    3.1744    0.8835 H   0  0  0  0  0  0  0  0  0  0  0  0
   -0.1717    3.7754    1.5047 H   0  0  0  0  0  0  0  0  0  0  0  0
   -3.4587   -2.5532   -1.0893 H   0  0  0  0  0  0  0  0  0  0  0  0
   -1.8191   -3.1547   -1.6203 H   0  0  0  0  0  0  0  0  0  0  0  0
   -3.4083   -5.0403   -1.1612 H   0  0  0  0  0  0  0  0  0  0  0  0
   -1.9419   -5.0199   -0.0800 H   0  0  0  0  0  0  0  0  0  0  0  0
   -3.2487   -4.6959    1.7674 H   0  0  0  0  0  0  0  0  0  0  0  0
   -4.7136   -5.0769    0.7055 H   0  0  0  0  0  0  0  0  0  0  0  0
   -4.1778   -3.4088    0.9797 H   0  0  0  0  0  0  0  0  0  0  0  0
    3.9130   -0.5293   -1.6728 H   0  0  0  0  0  0  0  0  0  0  0  0
    3.4163   -2.2565   -1.6062 H   0  0  0  0  0  0  0  0  0  0  0  0
    5.1349   -0.5086    2.5789 H   0  0  0  0  0  0  0  0  0  0  0  0
    4.4027   -2.1647    2.7534 H   0  0  0  0  0  0  0  0  0  0  0  0
    6.0952   -1.9812    2.2575 H   0  0  0  0  0  0  0  0  0  0  0  0
    0.7043   -0.0071   -4.6094 H   0  0  0  0  0  0  0  0  0  0  0  0
   -4.7056    1.7480    1.5779 H   0  0  0  0  0  0  0  0  0  0  0  0
   -4.7127    1.5039   -0.1816 H   0  0  0  0  0  0  0  0  0  0  0  0
  1  2  1  0
  2  3  1  0
  3  4  1  0
  4  5  2  0
  4  6  1  0
  6  7  2  0
  7  8  1  0
  8  9  2  0
  9 10  1  0
 10 11  2  0
 10 12  1  0
 12 13  1  0
 13 14  1  0
  9 15  1  0
 15 16  2  0
 16 17  1  0
 17 18  1  0
 18 19  1  0
 19 20  1  0
 20 21  2  0
 20 22  1  0
 22 23  1  0
 18 24  1  0
 24 25  2  0
 24 26  1  0
 18 27  1  0
  8 28  1  0
 28 29  1  0
 29 30  1  0
 16  6  1  0
 30  7  1  0
 27 15  1  0
  1 31  1  0
  1 32  1  0
  1 33  1  0
  2 34  1  0
  2 35  1  0
  3 36  1  0
  3 37  1  0
 12 38  1  0
 12 39  1  0
 13 40  1  0
 13 41  1  0
 14 42  1  0
 14 43  1  0
 14 44  1  0
 19 45  1  0
 19 46  1  0
 23 47  1  0
 23 48  1  0
 23 49  1  0
 26 50  1  0
 29 51  1  0
 29 52  1  0
M  END
