
     RDKit          3D

 55 61  0  0  0  0  0  0  0  0999 V2000
    6.8126   -0.5354    0.9887 O   0  0  0  0  0  0  0  0  0  0  0  0
    5.7733   -0.8544    0.3503 C   0  0  0  0  0  0  0  0  0  0  0  0
    5.8736   -1.8407   -0.6171 O   0  0  0  0  0  0  0  0  0  0  0  0
    4.7261   -2.2013   -1.3307 C   0  0  0  0  0  0  0  0  0  0  0  0
    4.7882   -3.0942   -2.2154 O   0  0  0  0  0  0  0  0  0  0  0  0
    3.4733   -1.5205   -1.0226 C   0  0  0  0  0  0  0  0  0  0  0  0
    2.3178   -1.8271   -1.6939 C   0  0  0  0  0  0  0  0  0  0  0  0
    1.1259   -1.1909   -1.4209 C   0  0  0  0  0  0  0  0  0  0  0  0
    0.9914   -0.1896   -0.4476 C   0  0  0  0  0  0  0  0  0  0  0  0
   -0.2528    0.4571   -0.2412 N   0  0  0  0  0  0  0  0  0  0  0  0
   -0.4195    1.8940   -0.2698 C   0  0  0  0  0  0  0  0  0  0  0  0
   -1.2230    2.4449    0.7183 C   0  0  0  0  0  0  0  0  0  0  0  0
   -1.4039    3.8037    0.7595 C   0  0  0  0  0  0  0  0  0  0  0  0
   -0.7786    4.5813   -0.1867 C   0  0  0  0  0  0  0  0  0  0  0  0
    0.0226    4.0527   -1.1750 C   0  0  0  0  0  0  0  0  0  0  0  0
    0.1966    2.6916   -1.2065 C   0  0  0  0  0  0  0  0  0  0  0  0
   -1.4060   -0.3652   -0.0482 C   0  0  0  0  0  0  0  0  0  0  0  0
   -2.2948   -0.5716   -1.1062 C   0  0  0  0  0  0  0  0  0  0  0  0
   -2.0784    0.0115   -2.3088 C   0  0  0  0  0  0  0  0  0  0  0  0
   -2.9376   -0.1553   -3.3956 C   0  0  0  0  0  0  0  0  0  0  0  0
   -4.0611   -0.9452   -3.2578 C   0  0  0  0  0  0  0  0  0  0  0  0
   -4.2820   -1.5385   -2.0362 C   0  0  0  0  0  0  0  0  0  0  0  0
   -3.4281   -1.3688   -0.9658 C   0  0  0  0  0  0  0  0  0  0  0  0
   -3.6626   -1.9589    0.2474 C   0  0  0  0  0  0  0  0  0  0  0  0
   -2.8196   -1.7881    1.3207 C   0  0  0  0  0  0  0  0  0  0  0  0
   -3.0757   -2.3948    2.5442 C   0  0  0  0  0  0  0  0  0  0  0  0
   -2.2503   -2.2391    3.6308 C   0  0  0  0  0  0  0  0  0  0  0  0
   -1.1412   -1.4458    3.4590 C   0  0  0  0  0  0  0  0  0  0  0  0
   -0.8918   -0.8391    2.2232 C   0  0  0  0  0  0  0  0  0  0  0  0
   -1.6925   -0.9791    1.1375 C   0  0  0  0  0  0  0  0  0  0  0  0
    2.1635    0.1102    0.2214 C   0  0  0  0  0  0  0  0  0  0  0  0
    2.2108    1.0736    1.1973 C   0  0  0  0  0  0  0  0  0  0  0  0
    3.3385    1.4270    1.8945 C   0  0  0  0  0  0  0  0  0  0  0  0
    4.5130    0.7824    1.6106 C   0  0  0  0  0  0  0  0  0  0  0  0
    4.5105   -0.1961    0.6326 C   0  0  0  0  0  0  0  0  0  0  0  0
    3.3739   -0.5393   -0.0595 C   0  0  0  0  0  0  0  0  0  0  0  0
    2.3664   -2.6051   -2.4676 H   0  0  0  0  0  0  0  0  0  0  0  0
    0.2559   -1.4828   -1.9793 H   0  0  0  0  0  0  0  0  0  0  0  0
   -1.7079    1.8252    1.4535 H   0  0  0  0  0  0  0  0  0  0  0  0
   -2.0377    4.2659    1.5348 H   0  0  0  0  0  0  0  0  0  0  0  0
   -0.9083    5.6656   -0.1733 H   0  0  0  0  0  0  0  0  0  0  0  0
    0.5121    4.7047   -1.9220 H   0  0  0  0  0  0  0  0  0  0  0  0
    0.8184    2.2435   -1.9680 H   0  0  0  0  0  0  0  0  0  0  0  0
   -1.2210    0.6164   -2.4505 H   0  0  0  0  0  0  0  0  0  0  0  0
   -2.7489    0.3186   -4.3487 H   0  0  0  0  0  0  0  0  0  0  0  0
   -4.7700   -1.1258   -4.0376 H   0  0  0  0  0  0  0  0  0  0  0  0
   -5.1472   -2.1721   -1.8616 H   0  0  0  0  0  0  0  0  0  0  0  0
   -4.5478   -2.5869    0.3705 H   0  0  0  0  0  0  0  0  0  0  0  0
   -3.9635   -3.0118    2.6314 H   0  0  0  0  0  0  0  0  0  0  0  0
   -2.4655   -2.7210    4.5806 H   0  0  0  0  0  0  0  0  0  0  0  0
   -0.4846   -1.3150    4.3043 H   0  0  0  0  0  0  0  0  0  0  0  0
   -0.0271   -0.2378    2.1467 H   0  0  0  0  0  0  0  0  0  0  0  0
    1.3031    1.5868    1.4346 H   0  0  0  0  0  0  0  0  0  0  0  0
    3.2725    2.2133    2.6583 H   0  0  0  0  0  0  0  0  0  0  0  0
    5.3889    1.0671    2.1634 H   0  0  0  0  0  0  0  0  0  0  0  0
  1  2  2  0
  2  3  1  0
  3  4  1  0
  4  5  2  0
  4  6  1  0
  6  7  1  0
  7  8  2  0
  8  9  1  0
  9 10  1  0
 10 11  1  0
 11 12  2  0
 12 13  1  0
 13 14  2  0
 14 15  1  0
 15 16  2  0
 10 17  1  0
 17 18  1  0
 18 19  2  0
 19 20  1  0
 20 21  2  0
 21 22  1  0
 22 23  2  0
 23 24  1  0
 24 25  2  0
 25 26  1  0
 26 27  2  0
 27 28  1  0
 28 29  2  0
 29 30  1  0
  9 31  2  0
 31 32  1  0
 32 33  2  0
 33 34  1  0
 34 35  2  0
 35 36  1  0
 35  2  1  0
 36  6  2  0
 16 11  1  0
 30 17  2  0
 36 31  1  0
 23 18  1  0
 30 25  1  0
  7 37  1  0
  8 38  1  0
 12 39  1  0
 13 40  1  0
 14 41  1  0
 15 42  1  0
 16 43  1  0
 19 44  1  0
 20 45  1  0
 21 46  1  0
 22 47  1  0
 24 48  1  0
 26 49  1  0
 27 50  1  0
 28 51  1  0
 29 52  1  0
 32 53  1  0
 33 54  1  0
 34 55  1  0
M  END
