
     RDKit          3D

 70 75  0  0  0  0  0  0  0  0999 V2000
    2.6785   -2.2656    1.1606 C   0  0  0  0  0  0  0  0  0  0  0  0
    1.9626   -1.0989    0.5604 C   0  0  0  0  0  0  0  0  0  0  0  0
    0.5638   -1.0495    0.5161 C   0  0  0  0  0  0  0  0  0  0  0  0
   -0.0961    0.0208   -0.0262 C   0  0  0  0  0  0  0  0  0  0  0  0
   -1.5461    0.0415   -0.0121 C   0  0  0  0  0  0  0  0  0  0  0  0
   -2.1424    1.0852    0.6477 C   0  0  0  0  0  0  0  0  0  0  0  0
   -3.5543    1.2211    0.6662 C   0  0  0  0  0  0  0  0  0  0  0  0
   -4.3511    0.3303    0.0367 C   0  0  0  0  0  0  0  0  0  0  0  0
   -5.7642    0.3485   -0.0930 N   0  0  0  0  0  0  0  0  0  0  0  0
   -6.4563    1.5264   -0.4263 C   0  0  0  0  0  0  0  0  0  0  0  0
   -7.2996    1.5076   -1.5337 C   0  0  0  0  0  0  0  0  0  0  0  0
   -8.1076    2.5845   -1.8485 C   0  0  0  0  0  0  0  0  0  0  0  0
   -8.0515    3.6851   -1.0315 C   0  0  0  0  0  0  0  0  0  0  0  0
   -7.2309    3.7325    0.0652 C   0  0  0  0  0  0  0  0  0  0  0  0
   -6.4314    2.6569    0.3742 C   0  0  0  0  0  0  0  0  0  0  0  0
   -6.4173   -0.8633    0.2797 C   0  0  0  0  0  0  0  0  0  0  0  0
   -7.3969   -1.5213   -0.4010 C   0  0  0  0  0  0  0  0  0  0  0  0
   -8.0015   -2.6940    0.0601 C   0  0  0  0  0  0  0  0  0  0  0  0
   -7.6103   -3.2308    1.2474 C   0  0  0  0  0  0  0  0  0  0  0  0
   -6.6244   -2.6108    1.9777 C   0  0  0  0  0  0  0  0  0  0  0  0
   -6.0506   -1.4652    1.5035 C   0  0  0  0  0  0  0  0  0  0  0  0
   -3.7345   -0.7326   -0.6311 C   0  0  0  0  0  0  0  0  0  0  0  0
   -2.3661   -0.8552   -0.6416 C   0  0  0  0  0  0  0  0  0  0  0  0
    0.6458    1.1035   -0.5554 C   0  0  0  0  0  0  0  0  0  0  0  0
    0.0789    2.1863   -1.1089 N   0  0  0  0  0  0  0  0  0  0  0  0
    1.3760    3.1413   -1.5727 S   0  0  0  0  0  0  0  0  0  0  0  0
    2.6185    2.1431   -1.0514 N   0  0  0  0  0  0  0  0  0  0  0  0
    1.9935    1.0858   -0.5278 C   0  0  0  0  0  0  0  0  0  0  0  0
    2.6535   -0.0301    0.0379 C   0  0  0  0  0  0  0  0  0  0  0  0
    4.1115   -0.0655    0.0912 C   0  0  0  0  0  0  0  0  0  0  0  0
    4.8461    0.3429    1.1681 C   0  0  0  0  0  0  0  0  0  0  0  0
    6.2294    0.2919    1.1510 C   0  0  0  0  0  0  0  0  0  0  0  0
    6.9279   -0.1674    0.0600 C   0  0  0  0  0  0  0  0  0  0  0  0
    8.4217   -0.2152    0.0484 C   0  0  0  0  0  0  0  0  0  0  0  0
    8.8476   -1.6467   -0.0326 C   0  0  0  0  0  0  0  0  0  0  0  0
    8.9623    0.4874   -1.1853 C   0  0  0  0  0  0  0  0  0  0  0  0
    8.9501    0.5238    1.2382 C   0  0  0  0  0  0  0  0  0  0  0  0
    6.1887   -0.5847   -1.0398 C   0  0  0  0  0  0  0  0  0  0  0  0
    4.7922   -0.5279   -1.0086 C   0  0  0  0  0  0  0  0  0  0  0  0
    3.6365   -2.4874    0.6737 H   0  0  0  0  0  0  0  0  0  0  0  0
    1.9807   -3.1252    1.1958 H   0  0  0  0  0  0  0  0  0  0  0  0
    2.8667   -2.0286    2.2495 H   0  0  0  0  0  0  0  0  0  0  0  0
   -0.0036   -1.8980    0.9320 H   0  0  0  0  0  0  0  0  0  0  0  0
   -1.5754    1.8349    1.1720 H   0  0  0  0  0  0  0  0  0  0  0  0
   -3.9668    2.0447    1.2075 H   0  0  0  0  0  0  0  0  0  0  0  0
   -7.3462    0.6903   -2.2422 H   0  0  0  0  0  0  0  0  0  0  0  0
   -8.7535    2.5690   -2.6972 H   0  0  0  0  0  0  0  0  0  0  0  0
   -8.6859    4.5399   -1.2768 H   0  0  0  0  0  0  0  0  0  0  0  0
   -7.1894    4.6220    0.7164 H   0  0  0  0  0  0  0  0  0  0  0  0
   -5.8506    2.7230    1.2538 H   0  0  0  0  0  0  0  0  0  0  0  0
   -7.7123   -1.1209   -1.3462 H   0  0  0  0  0  0  0  0  0  0  0  0
   -8.7713   -3.1273   -0.5665 H   0  0  0  0  0  0  0  0  0  0  0  0
   -8.0891   -4.1604    1.6217 H   0  0  0  0  0  0  0  0  0  0  0  0
   -6.3369   -3.0673    2.9134 H   0  0  0  0  0  0  0  0  0  0  0  0
   -5.2627   -0.9498    2.0720 H   0  0  0  0  0  0  0  0  0  0  0  0
   -4.3304   -1.4565   -1.1384 H   0  0  0  0  0  0  0  0  0  0  0  0
   -1.8641   -1.6848   -1.1560 H   0  0  0  0  0  0  0  0  0  0  0  0
    4.3086    0.7126    2.0479 H   0  0  0  0  0  0  0  0  0  0  0  0
    6.7882    0.6234    2.0189 H   0  0  0  0  0  0  0  0  0  0  0  0
    9.1298   -1.9294   -1.0905 H   0  0  0  0  0  0  0  0  0  0  0  0
    8.0572   -2.3582    0.2689 H   0  0  0  0  0  0  0  0  0  0  0  0
    9.7480   -1.7520    0.6134 H   0  0  0  0  0  0  0  0  0  0  0  0
    8.6639    1.5493   -1.2166 H   0  0  0  0  0  0  0  0  0  0  0  0
   10.0718    0.4407   -1.1453 H   0  0  0  0  0  0  0  0  0  0  0  0
    8.6388   -0.0474   -2.0944 H   0  0  0  0  0  0  0  0  0  0  0  0
   10.0545    0.6720    1.0908 H   0  0  0  0  0  0  0  0  0  0  0  0
    8.7475    0.0319    2.1986 H   0  0  0  0  0  0  0  0  0  0  0  0
    8.4817    1.5256    1.2343 H   0  0  0  0  0  0  0  0  0  0  0  0
    6.7188   -0.9439   -1.9004 H   0  0  0  0  0  0  0  0  0  0  0  0
    4.2300   -0.8640   -1.8854 H   0  0  0  0  0  0  0  0  0  0  0  0
  1  2  1  0
  2  3  1  0
  3  4  2  0
  4  5  1  0
  5  6  2  0
  6  7  1  0
  7  8  2  0
  8  9  1  0
  9 10  1  0
 10 11  2  0
 11 12  1  0
 12 13  2  0
 13 14  1  0
 14 15  2  0
  9 16  1  0
 16 17  2  0
 17 18  1  0
 18 19  2  0
 19 20  1  0
 20 21  2  0
  8 22  1  0
 22 23  2  0
  4 24  1  0
 24 25  2  0
 25 26  1  0
 26 27  1  0
 27 28  2  0
 28 29  1  0
 29 30  1  0
 30 31  2  0
 31 32  1  0
 32 33  2  0
 33 34  1  0
 34 35  1  0
 34 36  1  0
 34 37  1  0
 33 38  1  0
 38 39  2  0
 29  2  2  0
 39 30  1  0
 23  5  1  0
 28 24  1  0
 15 10  1  0
 21 16  1  0
  1 40  1  0
  1 41  1  0
  1 42  1  0
  3 43  1  0
  6 44  1  0
  7 45  1  0
 11 46  1  0
 12 47  1  0
 13 48  1  0
 14 49  1  0
 15 50  1  0
 17 51  1  0
 18 52  1  0
 19 53  1  0
 20 54  1  0
 21 55  1  0
 22 56  1  0
 23 57  1  0
 31 58  1  0
 32 59  1  0
 35 60  1  0
 35 61  1  0
 35 62  1  0
 36 63  1  0
 36 64  1  0
 36 65  1  0
 37 66  1  0
 37 67  1  0
 37 68  1  0
 38 69  1  0
 39 70  1  0
M  END
