
     RDKit          3D

 38 40  0  0  0  0  0  0  0  0999 V2000
    5.5951    2.3604    0.3636 C   0  0  0  0  0  0  0  0  0  0  0  0
    4.2789    1.6761    0.2602 C   0  0  0  0  0  0  0  0  0  0  0  0
    3.5748    1.6783   -0.9261 C   0  0  0  0  0  0  0  0  0  0  0  0
    2.3623    1.0396   -0.9958 C   0  0  0  0  0  0  0  0  0  0  0  0
    1.7979    0.3759    0.0968 C   0  0  0  0  0  0  0  0  0  0  0  0
    0.4850   -0.2803   -0.0886 C   0  0  0  0  0  0  0  0  0  0  0  0
   -0.1365   -0.9264    0.8580 C   0  0  0  0  0  0  0  0  0  0  0  0
   -1.4020   -1.6062    0.8386 C   0  0  0  0  0  0  0  0  0  0  0  0
   -1.7138   -2.3887    1.9839 C   0  0  0  0  0  0  0  0  0  0  0  0
   -2.8973   -3.0717    2.1125 C   0  0  0  0  0  0  0  0  0  0  0  0
   -3.8447   -3.0222    1.1159 C   0  0  0  0  0  0  0  0  0  0  0  0
   -3.5641   -2.2788    0.0147 C   0  0  0  0  0  0  0  0  0  0  0  0
   -2.3354   -1.5649   -0.1261 C   0  0  0  0  0  0  0  0  0  0  0  0
   -2.2129   -0.8022   -1.3134 N   0  0  0  0  0  4  0  0  0  0  0  0
   -1.8667   -1.1548   -2.5374 N   0  0  0  0  0  0  0  0  0  0  0  0
   -1.9426   -0.1553   -3.3520 O   0  0  0  0  0  0  0  0  0  0  0  0
   -2.3443    0.8960   -2.6857 C   0  0  0  0  0  0  0  0  0  0  0  0
   -2.5303    2.1436   -3.2707 O   0  0  0  0  0  1  0  0  0  0  0  0
   -2.5295    0.5256   -1.3747 C   0  0  0  0  0  0  0  0  0  0  0  0
   -2.9808    1.4149   -0.2836 C   0  0  0  0  0  0  0  0  0  0  0  0
    2.5196    0.3957    1.2447 C   0  0  0  0  0  0  0  0  0  0  0  0
    3.7450    1.0328    1.3410 C   0  0  0  0  0  0  0  0  0  0  0  0
    5.3965    3.3868    0.7426 H   0  0  0  0  0  0  0  0  0  0  0  0
    6.2243    1.7659    1.0542 H   0  0  0  0  0  0  0  0  0  0  0  0
    6.0092    2.4559   -0.6425 H   0  0  0  0  0  0  0  0  0  0  0  0
    4.0043    2.1950   -1.7934 H   0  0  0  0  0  0  0  0  0  0  0  0
    1.8120    1.0420   -1.9251 H   0  0  0  0  0  0  0  0  0  0  0  0
    0.0210   -0.2547   -1.0513 H   0  0  0  0  0  0  0  0  0  0  0  0
    0.4478   -0.9131    1.8300 H   0  0  0  0  0  0  0  0  0  0  0  0
   -0.9552   -2.4215    2.7636 H   0  0  0  0  0  0  0  0  0  0  0  0
   -3.0751   -3.6570    3.0212 H   0  0  0  0  0  0  0  0  0  0  0  0
   -4.7450   -3.5788    1.2808 H   0  0  0  0  0  0  0  0  0  0  0  0
   -4.2761   -2.2128   -0.7877 H   0  0  0  0  0  0  0  0  0  0  0  0
   -4.0743    1.4988   -0.3336 H   0  0  0  0  0  0  0  0  0  0  0  0
   -2.7244    1.0191    0.7228 H   0  0  0  0  0  0  0  0  0  0  0  0
   -2.5767    2.4457   -0.4249 H   0  0  0  0  0  0  0  0  0  0  0  0
    2.1627   -0.0871    2.1289 H   0  0  0  0  0  0  0  0  0  0  0  0
    4.2909    1.0282    2.2698 H   0  0  0  0  0  0  0  0  0  0  0  0
  1  2  1  0
  2  3  2  0
  3  4  1  0
  4  5  2  0
  5  6  1  0
  6  7  2  0
  7  8  1  0
  8  9  2  0
  9 10  1  0
 10 11  2  0
 11 12  1  0
 12 13  2  0
 13 14  1  0
 14 15  2  0
 15 16  1  0
 16 17  1  0
 17 18  1  0
 17 19  2  0
 19 20  1  0
  5 21  1  0
 21 22  2  0
 22  2  1  0
 13  8  1  0
 19 14  1  0
  1 23  1  0
  1 24  1  0
  1 25  1  0
  3 26  1  0
  4 27  1  0
  6 28  1  0
  7 29  1  0
  9 30  1  0
 10 31  1  0
 11 32  1  0
 12 33  1  0
 20 34  1  0
 20 35  1  0
 20 36  1  0
 21 37  1  0
 22 38  1  0
M  CHG  2  14   1  18  -1
M  END
