
     RDKit          3D

 36 39  0  0  0  0  0  0  0  0999 V2000
    1.7200   -2.4817   -0.3257 O   0  0  0  0  0  0  0  0  0  0  0  0
    2.7623   -1.5954   -0.1879 C   0  0  0  0  0  0  0  0  0  0  0  0
    4.0440   -2.0820   -0.2296 C   0  0  0  0  0  0  0  0  0  0  0  0
    5.1374   -1.2609   -0.0997 C   0  0  0  0  0  0  0  0  0  0  0  0
    4.9229    0.0807    0.0767 C   0  0  0  0  0  0  0  0  0  0  0  0
    3.6217    0.5691    0.1190 C   0  0  0  0  0  0  0  0  0  0  0  0
    2.5208   -0.2180   -0.0080 C   0  0  0  0  0  0  0  0  0  0  0  0
    1.1337    0.1982   -0.0333 C   0  0  0  0  0  0  0  0  0  0  0  0
    0.1062   -0.6703    0.2338 N   0  0  0  0  0  0  0  0  0  0  0  0
   -1.0740   -0.0727    0.1248 C   0  0  0  0  0  0  0  0  0  0  0  0
   -2.4071   -0.6514    0.3383 C   0  0  0  0  0  0  0  0  0  0  0  0
   -3.4545   -0.4924   -0.5355 C   0  0  0  0  0  0  0  0  0  0  0  0
   -4.6780   -1.0796   -0.2219 C   0  0  0  0  0  0  0  0  0  0  0  0
   -4.8770   -1.8111    0.9265 C   0  0  0  0  0  0  0  0  0  0  0  0
   -3.8255   -1.9644    1.7922 C   0  0  0  0  0  0  0  0  0  0  0  0
   -2.6021   -1.3840    1.4905 C   0  0  0  0  0  0  0  0  0  0  0  0
   -0.8349    1.2237   -0.2233 C   0  0  0  0  0  0  0  0  0  0  0  0
   -1.7336    2.2390   -0.4616 C   0  0  0  0  0  0  0  0  0  0  0  0
   -1.2164    3.4720   -0.8181 C   0  0  0  0  0  0  0  0  0  0  0  0
    0.1458    3.6162   -0.9144 C   0  0  0  0  0  0  0  0  0  0  0  0
    1.0195    2.5525   -0.6610 C   0  0  0  0  0  0  0  0  0  0  0  0
    0.5120    1.3585   -0.3132 N   0  0  0  0  0  0  0  0  0  0  0  0
    1.8642   -3.4653   -0.4547 H   0  0  0  0  0  0  0  0  0  0  0  0
    4.2429   -3.1556   -0.3696 H   0  0  0  0  0  0  0  0  0  0  0  0
    6.1584   -1.6642   -0.1357 H   0  0  0  0  0  0  0  0  0  0  0  0
    5.7665    0.7469    0.1814 H   0  0  0  0  0  0  0  0  0  0  0  0
    3.5367    1.6188    0.2953 H   0  0  0  0  0  0  0  0  0  0  0  0
   -3.3398    0.0672   -1.4515 H   0  0  0  0  0  0  0  0  0  0  0  0
   -5.5176   -0.9734   -0.8850 H   0  0  0  0  0  0  0  0  0  0  0  0
   -5.8416   -2.2708    1.1682 H   0  0  0  0  0  0  0  0  0  0  0  0
   -3.9751   -2.5435    2.7055 H   0  0  0  0  0  0  0  0  0  0  0  0
   -1.8099   -1.5433    2.2183 H   0  0  0  0  0  0  0  0  0  0  0  0
   -2.8194    2.0935   -0.3707 H   0  0  0  0  0  0  0  0  0  0  0  0
   -1.8879    4.2841   -1.0104 H   0  0  0  0  0  0  0  0  0  0  0  0
    0.6061    4.5705   -1.1938 H   0  0  0  0  0  0  0  0  0  0  0  0
    2.0734    2.6891   -0.7661 H   0  0  0  0  0  0  0  0  0  0  0  0
  1  2  1  0
  2  3  2  0
  3  4  1  0
  4  5  2  0
  5  6  1  0
  6  7  2  0
  7  8  1  0
  8  9  2  0
  9 10  1  0
 10 11  1  0
 11 12  2  0
 12 13  1  0
 13 14  2  0
 14 15  1  0
 15 16  2  0
 10 17  2  0
 17 18  1  0
 18 19  2  0
 19 20  1  0
 20 21  2  0
 21 22  1  0
  7  2  1  0
 22  8  1  0
 16 11  1  0
 22 17  1  0
  1 23  1  0
  3 24  1  0
  4 25  1  0
  5 26  1  0
  6 27  1  0
 12 28  1  0
 13 29  1  0
 14 30  1  0
 15 31  1  0
 16 32  1  0
 18 33  1  0
 19 34  1  0
 20 35  1  0
 21 36  1  0
M  END
