
     RDKit          3D

 20 22  0  0  0  0  0  0  0  0999 V2000
   -4.2159    0.9085    1.1384 O   0  0  0  0  0  0  0  0  0  0  0  0
   -3.1247    0.4574    0.7236 C   0  0  0  0  0  0  0  0  0  0  0  0
   -3.1612   -0.7560    0.0542 C   0  0  0  0  0  0  0  0  0  0  0  0
   -1.9488   -1.2376   -0.3957 C   0  0  0  0  0  0  0  0  0  0  0  0
   -0.7846   -0.5397   -0.1824 C   0  0  0  0  0  0  0  0  0  0  0  0
    0.4510   -0.9780   -0.6117 C   0  0  0  0  0  0  0  0  0  0  0  0
    1.6034   -0.2557   -0.3830 C   0  0  0  0  0  0  0  0  0  0  0  0
    2.9483   -0.4010   -0.6658 C   0  0  0  0  0  0  0  0  0  0  0  0
    3.6409    0.6860   -0.1652 C   0  0  0  0  0  0  0  0  0  0  0  0
    2.7539    1.4619    0.3995 O   0  0  0  0  0  0  0  0  0  0  0  0
    1.5250    0.9435    0.2958 C   0  0  0  0  0  0  0  0  0  0  0  0
    0.2948    1.3891    0.7283 C   0  0  0  0  0  0  0  0  0  0  0  0
   -0.8435    0.6590    0.4932 C   0  0  0  0  0  0  0  0  0  0  0  0
   -2.0191    1.1289    0.9311 O   0  0  0  0  0  0  0  0  0  0  0  0
   -4.1012   -1.2712   -0.0912 H   0  0  0  0  0  0  0  0  0  0  0  0
   -1.9085   -2.1883   -0.9305 H   0  0  0  0  0  0  0  0  0  0  0  0
    0.5435   -1.9114   -1.1447 H   0  0  0  0  0  0  0  0  0  0  0  0
    3.3649   -1.2474   -1.1991 H   0  0  0  0  0  0  0  0  0  0  0  0
    4.7135    0.8164   -0.2538 H   0  0  0  0  0  0  0  0  0  0  0  0
    0.2679    2.3358    1.2589 H   0  0  0  0  0  0  0  0  0  0  0  0
  1  2  2  0
  2  3  1  0
  3  4  2  0
  4  5  1  0
  5  6  2  0
  6  7  1  0
  7  8  1  0
  8  9  2  0
  9 10  1  0
 10 11  1  0
 11 12  1  0
 12 13  2  0
 13 14  1  0
 14  2  1  0
 13  5  1  0
 11  7  2  0
  3 15  1  0
  4 16  1  0
  6 17  1  0
  8 18  1  0
  9 19  1  0
 12 20  1  0
M  END
