
     RDKit          3D

 45 48  0  0  0  0  0  0  0  0999 V2000
   -1.5804    0.9966    0.5449 C   0  0  0  0  0  0  0  0  0  0  0  0
   -2.5853    0.3359    0.0203 C   0  0  0  0  0  0  0  0  0  0  0  0
   -3.9604    0.8584    0.1700 C   0  0  0  0  0  0  0  0  0  0  0  0
   -4.1642    2.0151    0.8486 N   0  0  0  0  0  0  0  0  0  0  0  0
   -5.4082    2.5044    0.9941 C   0  0  0  0  0  0  0  0  0  0  0  0
   -6.4828    1.8785    0.4820 N   0  0  0  0  0  0  0  0  0  0  0  0
   -6.3523    0.7178   -0.2080 C   0  0  0  0  0  0  0  0  0  0  0  0
   -7.4637    0.0798   -0.7319 C   0  0  0  0  0  0  0  0  0  0  0  0
   -7.3251   -1.0957   -1.4300 C   0  0  0  0  0  0  0  0  0  0  0  0
   -6.0586   -1.6017   -1.5829 C   0  0  0  0  0  0  0  0  0  0  0  0
   -4.9411   -0.9543   -1.0525 C   0  0  0  0  0  0  0  0  0  0  0  0
   -5.0597    0.2239   -0.3503 C   0  0  0  0  0  0  0  0  0  0  0  0
   -0.2170    0.5279    0.4266 C   0  0  0  0  0  0  0  0  0  0  0  0
    0.7986    1.2922    1.0154 C   0  0  0  0  0  0  0  0  0  0  0  0
    2.1314    0.9155    0.9493 C   0  0  0  0  0  0  0  0  0  0  0  0
    2.5159   -0.2515    0.2871 C   0  0  0  0  0  0  0  0  0  0  0  0
    3.8730   -0.6203    0.2439 N   0  0  0  0  0  0  0  0  0  0  0  0
    4.4024   -1.5778   -0.6922 C   0  0  0  0  0  0  0  0  0  0  0  0
    5.4733   -0.8817   -1.5098 C   0  0  0  0  0  0  0  0  0  0  0  0
    6.4701   -0.2520   -0.5944 C   0  0  0  0  0  0  0  0  0  0  0  0
    5.7841    0.7704    0.2984 C   0  0  0  0  0  0  0  0  0  0  0  0
    4.8222   -0.0482    1.1687 C   0  0  0  0  0  0  0  0  0  0  0  0
    1.4976   -0.9971   -0.2907 C   0  0  0  0  0  0  0  0  0  0  0  0
    0.1646   -0.6111   -0.2192 C   0  0  0  0  0  0  0  0  0  0  0  0
   -1.8377    1.9134    1.0710 H   0  0  0  0  0  0  0  0  0  0  0  0
   -2.3679   -0.5690   -0.5034 H   0  0  0  0  0  0  0  0  0  0  0  0
   -5.4983    3.4396    1.5519 H   0  0  0  0  0  0  0  0  0  0  0  0
   -8.4347    0.4916   -0.6002 H   0  0  0  0  0  0  0  0  0  0  0  0
   -8.1960   -1.6200   -1.8554 H   0  0  0  0  0  0  0  0  0  0  0  0
   -5.9224   -2.5261   -2.1285 H   0  0  0  0  0  0  0  0  0  0  0  0
   -3.9556   -1.3725   -1.1864 H   0  0  0  0  0  0  0  0  0  0  0  0
    0.4915    2.1872    1.5221 H   0  0  0  0  0  0  0  0  0  0  0  0
    2.8599    1.5672    1.4271 H   0  0  0  0  0  0  0  0  0  0  0  0
    3.6855   -2.1192   -1.2916 H   0  0  0  0  0  0  0  0  0  0  0  0
    4.9545   -2.3517   -0.0814 H   0  0  0  0  0  0  0  0  0  0  0  0
    5.9508   -1.5649   -2.2160 H   0  0  0  0  0  0  0  0  0  0  0  0
    4.9625   -0.0698   -2.0907 H   0  0  0  0  0  0  0  0  0  0  0  0
    6.9163   -1.0747    0.0279 H   0  0  0  0  0  0  0  0  0  0  0  0
    7.2682    0.2665   -1.1498 H   0  0  0  0  0  0  0  0  0  0  0  0
    5.2269    1.4540   -0.3546 H   0  0  0  0  0  0  0  0  0  0  0  0
    6.4804    1.2845    0.9629 H   0  0  0  0  0  0  0  0  0  0  0  0
    5.4345   -0.9066    1.5549 H   0  0  0  0  0  0  0  0  0  0  0  0
    4.4116    0.4979    2.0061 H   0  0  0  0  0  0  0  0  0  0  0  0
    1.7852   -1.9025   -0.8019 H   0  0  0  0  0  0  0  0  0  0  0  0
   -0.5499   -1.2495   -0.6949 H   0  0  0  0  0  0  0  0  0  0  0  0
  1  2  2  0
  2  3  1  0
  3  4  2  0
  4  5  1  0
  5  6  2  0
  6  7  1  0
  7  8  2  0
  8  9  1  0
  9 10  2  0
 10 11  1  0
 11 12  2  0
  1 13  1  0
 13 14  2  0
 14 15  1  0
 15 16  2  0
 16 17  1  0
 17 18  1  0
 18 19  1  0
 19 20  1  0
 20 21  1  0
 21 22  1  0
 16 23  1  0
 23 24  2  0
 12  3  1  0
 24 13  1  0
 12  7  1  0
 22 17  1  0
  1 25  1  0
  2 26  1  0
  5 27  1  0
  8 28  1  0
  9 29  1  0
 10 30  1  0
 11 31  1  0
 14 32  1  0
 15 33  1  0
 18 34  1  0
 18 35  1  0
 19 36  1  0
 19 37  1  0
 20 38  1  0
 20 39  1  0
 21 40  1  0
 21 41  1  0
 22 42  1  0
 22 43  1  0
 23 44  1  0
 24 45  1  0
M  END
