
     RDKit          3D

 45 48  0  0  0  0  0  0  0  0999 V2000
    6.8134   -3.4509   -0.4963 C   0  0  0  0  0  0  0  0  0  0  0  0
    6.4301   -2.0879   -0.6439 O   0  0  0  0  0  0  0  0  0  0  0  0
    5.1314   -1.6515   -0.4206 C   0  0  0  0  0  0  0  0  0  0  0  0
    4.3070   -2.5329   -0.0785 O   0  0  0  0  0  0  0  0  0  0  0  0
    4.7312   -0.2671   -0.5679 C   0  0  0  0  0  0  0  0  0  0  0  0
    5.6089    0.7351   -0.9432 C   0  0  0  0  0  0  0  0  0  0  0  0
    5.0188    1.9883   -1.0242 C   0  0  0  0  0  0  0  0  0  0  0  0
    5.8210    2.9212   -1.3700 O   0  0  0  0  0  0  0  0  0  0  0  0
    3.7558    2.2699   -0.7823 N   0  0  0  0  0  0  0  0  0  0  0  0
    3.3384    3.6591   -0.9265 C   0  0  0  0  0  0  0  0  0  0  0  0
    2.8654    1.2869   -0.4074 C   0  0  0  0  0  0  0  0  0  0  0  0
    1.5501    1.4292   -0.1294 C   0  0  0  0  0  0  0  0  0  0  0  0
    0.8588    0.3028    0.2244 C   0  0  0  0  0  0  0  0  0  0  0  0
   -0.5780    0.2037    0.5721 C   0  0  0  0  0  0  0  0  0  0  0  0
   -1.0914   -1.0281    0.9032 C   0  0  0  0  0  0  0  0  0  0  0  0
   -2.4385   -1.1526    1.2347 C   0  0  0  0  0  0  0  0  0  0  0  0
   -3.2625   -0.0547    1.2345 C   0  0  0  0  0  0  0  0  0  0  0  0
   -4.6012   -0.1595    1.5607 O   0  0  0  0  0  0  0  0  0  0  0  0
   -5.6088   -0.4055    0.6664 C   0  0  0  0  0  0  0  0  0  0  0  0
   -6.9012   -0.4803    1.1618 C   0  0  0  0  0  0  0  0  0  0  0  0
   -7.9834   -0.7235    0.3445 C   0  0  0  0  0  0  0  0  0  0  0  0
   -7.8160   -0.9032   -1.0128 C   0  0  0  0  0  0  0  0  0  0  0  0
   -6.5325   -0.8299   -1.5120 C   0  0  0  0  0  0  0  0  0  0  0  0
   -5.4370   -0.5841   -0.6869 C   0  0  0  0  0  0  0  0  0  0  0  0
   -2.7624    1.1814    0.9057 C   0  0  0  0  0  0  0  0  0  0  0  0
   -1.4122    1.2915    0.5760 C   0  0  0  0  0  0  0  0  0  0  0  0
    2.0457   -0.9153    0.1620 S   0  0  0  0  0  0  0  0  0  0  0  0
    3.3857    0.0278   -0.3094 C   0  0  0  0  0  0  0  0  0  0  0  0
    7.8723   -3.5131   -0.1596 H   0  0  0  0  0  0  0  0  0  0  0  0
    6.1609   -3.9726    0.2445 H   0  0  0  0  0  0  0  0  0  0  0  0
    6.7296   -4.0183   -1.4369 H   0  0  0  0  0  0  0  0  0  0  0  0
    6.6324    0.5245   -1.1422 H   0  0  0  0  0  0  0  0  0  0  0  0
    3.9722    4.1658   -1.6622 H   0  0  0  0  0  0  0  0  0  0  0  0
    2.2816    3.6298   -1.2799 H   0  0  0  0  0  0  0  0  0  0  0  0
    3.3614    4.1287    0.0827 H   0  0  0  0  0  0  0  0  0  0  0  0
    1.0012    2.4048   -0.1719 H   0  0  0  0  0  0  0  0  0  0  0  0
   -0.4340   -1.8790    0.8991 H   0  0  0  0  0  0  0  0  0  0  0  0
   -2.8517   -2.1153    1.4962 H   0  0  0  0  0  0  0  0  0  0  0  0
   -7.0780   -0.3464    2.2141 H   0  0  0  0  0  0  0  0  0  0  0  0
   -9.0038   -0.7829    0.7339 H   0  0  0  0  0  0  0  0  0  0  0  0
   -8.6601   -1.0948   -1.6636 H   0  0  0  0  0  0  0  0  0  0  0  0
   -6.3782   -0.9673   -2.5703 H   0  0  0  0  0  0  0  0  0  0  0  0
   -4.4341   -0.5277   -1.0832 H   0  0  0  0  0  0  0  0  0  0  0  0
   -3.4163    2.0404    0.9077 H   0  0  0  0  0  0  0  0  0  0  0  0
   -0.9920    2.2529    0.3131 H   0  0  0  0  0  0  0  0  0  0  0  0
  1  2  1  0
  2  3  1  0
  3  4  2  0
  3  5  1  0
  5  6  2  0
  6  7  1  0
  7  8  2  0
  7  9  1  0
  9 10  1  0
  9 11  1  0
 11 12  1  0
 12 13  2  0
 13 14  1  0
 14 15  2  0
 15 16  1  0
 16 17  2  0
 17 18  1  0
 18 19  1  0
 19 20  2  0
 20 21  1  0
 21 22  2  0
 22 23  1  0
 23 24  2  0
 17 25  1  0
 25 26  2  0
 13 27  1  0
 27 28  1  0
 28  5  1  0
 28 11  2  0
 26 14  1  0
 24 19  1  0
  1 29  1  0
  1 30  1  0
  1 31  1  0
  6 32  1  0
 10 33  1  0
 10 34  1  0
 10 35  1  0
 12 36  1  0
 15 37  1  0
 16 38  1  0
 20 39  1  0
 21 40  1  0
 22 41  1  0
 23 42  1  0
 24 43  1  0
 25 44  1  0
 26 45  1  0
M  END
