
     RDKit          3D

 35 37  0  0  0  0  0  0  0  0999 V2000
   -3.8688   -3.3241   -0.4191 C   0  0  0  0  0  0  0  0  0  0  0  0
   -4.2979   -1.8897   -0.1754 C   0  0  0  0  0  0  0  0  0  0  0  0
   -5.5060   -1.6254   -0.0338 O   0  0  0  0  0  0  0  0  0  0  0  0
   -3.3223   -0.8724   -0.1123 N   0  0  0  0  0  0  0  0  0  0  0  0
   -3.5356    0.4986    0.1038 C   0  0  0  0  0  0  0  0  0  0  0  0
   -4.7906    1.0456    0.2902 C   0  0  0  0  0  0  0  0  0  0  0  0
   -4.9099    2.4186    0.4985 C   0  0  0  0  0  0  0  0  0  0  0  0
   -3.8010    3.2101    0.5176 C   0  0  0  0  0  0  0  0  0  0  0  0
   -2.5538    2.6595    0.3313 C   0  0  0  0  0  0  0  0  0  0  0  0
   -2.4145    1.3140    0.1253 C   0  0  0  0  0  0  0  0  0  0  0  0
   -1.1244    0.7839   -0.0617 N   0  0  0  0  0  0  0  0  0  0  0  0
   -0.0724    1.2228    0.4884 N   0  0  0  0  0  0  0  0  0  0  0  0
    1.2102    0.6413    0.2585 C   0  0  0  0  0  0  0  0  0  0  0  0
    2.3164    1.3196    0.0311 N   0  0  0  0  0  0  0  0  0  0  0  0
    3.4442    0.6954   -0.1682 C   0  0  0  0  0  0  0  0  0  0  0  0
    4.6948    1.2988   -0.4213 C   0  0  0  0  0  0  0  0  0  0  0  0
    5.7870    0.5138   -0.6099 C   0  0  0  0  0  0  0  0  0  0  0  0
    5.7919   -0.8670   -0.5767 C   0  0  0  0  0  0  0  0  0  0  0  0
    6.9396   -1.6473   -0.7760 N   0  0  0  0  0  4  0  0  0  0  0  0
    6.8761   -2.8752   -0.7336 O   0  0  0  0  0  0  0  0  0  0  0  0
    8.1289   -1.0201   -1.0180 O   0  0  0  0  0  1  0  0  0  0  0  0
    4.5661   -1.4664   -0.3285 C   0  0  0  0  0  0  0  0  0  0  0  0
    3.4302   -0.6706   -0.1318 C   0  0  0  0  0  0  0  0  0  0  0  0
    1.7623   -0.9724    0.1933 S   0  0  0  0  0  0  0  0  0  0  0  0
   -3.9573   -3.8927    0.5098 H   0  0  0  0  0  0  0  0  0  0  0  0
   -4.4779   -3.7021   -1.2568 H   0  0  0  0  0  0  0  0  0  0  0  0
   -2.8149   -3.3497   -0.7567 H   0  0  0  0  0  0  0  0  0  0  0  0
   -2.3177   -1.2071   -0.2466 H   0  0  0  0  0  0  0  0  0  0  0  0
   -5.6959    0.4676    0.2844 H   0  0  0  0  0  0  0  0  0  0  0  0
   -5.9079    2.8319    0.6436 H   0  0  0  0  0  0  0  0  0  0  0  0
   -3.8610    4.2812    0.6772 H   0  0  0  0  0  0  0  0  0  0  0  0
   -1.7014    3.3436    0.3569 H   0  0  0  0  0  0  0  0  0  0  0  0
    4.8097    2.3736   -0.4697 H   0  0  0  0  0  0  0  0  0  0  0  0
    6.7520    0.9805   -0.8052 H   0  0  0  0  0  0  0  0  0  0  0  0
    4.4218   -2.5183   -0.2750 H   0  0  0  0  0  0  0  0  0  0  0  0
  1  2  1  0
  2  3  2  0
  2  4  1  0
  4  5  1  0
  5  6  2  0
  6  7  1  0
  7  8  2  0
  8  9  1  0
  9 10  2  0
 10 11  1  0
 11 12  2  0
 12 13  1  0
 13 14  2  0
 14 15  1  0
 15 16  2  0
 16 17  1  0
 17 18  2  0
 18 19  1  0
 19 20  2  0
 19 21  1  0
 18 22  1  0
 22 23  2  0
 23 24  1  0
 10  5  1  0
 24 13  1  0
 23 15  1  0
  1 25  1  0
  1 26  1  0
  1 27  1  0
  4 28  1  0
  6 29  1  0
  7 30  1  0
  8 31  1  0
  9 32  1  0
 16 33  1  0
 17 34  1  0
 22 35  1  0
M  CHG  2  19   1  21  -1
M  END
