
     RDKit          3D

 60 66  0  0  0  0  0  0  0  0999 V2000
   -5.3901    0.0941   -0.4996 C   0  0  0  0  0  0  0  0  0  0  0  0
   -5.8403   -0.7352    0.3792 C   0  0  0  0  0  0  0  0  0  0  0  0
   -7.1495   -1.1272    0.7717 C   0  0  0  0  0  0  0  0  0  0  0  0
   -7.2983   -2.4333    1.2846 C   0  0  0  0  0  0  0  0  0  0  0  0
   -8.5050   -2.9268    1.7190 C   0  0  0  0  0  0  0  0  0  0  0  0
   -9.6305   -2.1432    1.6664 C   0  0  0  0  0  0  0  0  0  0  0  0
   -9.5141   -0.8620    1.1741 C   0  0  0  0  0  0  0  0  0  0  0  0
  -10.6530   -0.0900    1.1836 C   0  0  0  0  0  0  0  0  0  0  0  0
  -10.6112    1.2173    0.7597 C   0  0  0  0  0  0  0  0  0  0  0  0
   -9.4154    1.7146    0.3367 C   0  0  0  0  0  0  0  0  0  0  0  0
   -8.2614    0.9337    0.3255 C   0  0  0  0  0  0  0  0  0  0  0  0
   -8.2751   -0.3799    0.7387 C   0  0  0  0  0  0  0  0  0  0  0  0
   -3.9664    0.3675   -0.7459 C   0  0  0  0  0  0  0  0  0  0  0  0
   -2.9723   -0.2477   -0.0543 C   0  0  0  0  0  0  0  0  0  0  0  0
   -1.6352    0.0667   -0.3459 C   0  0  0  0  0  0  0  0  0  0  0  0
   -1.2737    0.9766   -1.3076 C   0  0  0  0  0  0  0  0  0  0  0  0
    0.1276    1.2757   -1.5808 C   0  0  0  0  0  0  0  0  0  0  0  0
    0.6385    2.1335   -2.4817 N   0  0  0  0  0  0  0  0  0  0  0  0
    1.9711    2.1002   -2.4015 N   0  0  0  0  0  0  0  0  0  0  0  0
    2.2798    1.2161   -1.4451 C   0  0  0  0  0  0  0  0  0  0  0  0
    3.6280    0.8550   -1.0135 C   0  0  0  0  0  0  0  0  0  0  0  0
    3.8604   -0.0692   -0.0166 C   0  0  0  0  0  0  0  0  0  0  0  0
    5.1373   -0.4000    0.3801 C   0  0  0  0  0  0  0  0  0  0  0  0
    6.2205    0.1979   -0.2234 C   0  0  0  0  0  0  0  0  0  0  0  0
    7.5853   -0.1722    0.2184 C   0  0  0  0  0  0  0  0  0  0  0  0
    8.7715    0.3077   -0.2555 C   0  0  0  0  0  0  0  0  0  0  0  0
    9.9032   -0.1814    0.3059 C   0  0  0  0  0  0  0  0  0  0  0  0
   11.2278    0.1646   -0.0200 C   0  0  0  0  0  0  0  0  0  0  0  0
   12.2902   -0.3944    0.6139 C   0  0  0  0  0  0  0  0  0  0  0  0
   12.1487   -1.3302    1.6107 C   0  0  0  0  0  0  0  0  0  0  0  0
   10.8642   -1.6828    1.9450 C   0  0  0  0  0  0  0  0  0  0  0  0
    9.7561   -1.1098    1.2946 C   0  0  0  0  0  0  0  0  0  0  0  0
    8.0640   -1.2792    1.4192 S   0  0  0  0  0  0  0  0  0  0  0  0
    6.0338    1.1229   -1.2195 C   0  0  0  0  0  0  0  0  0  0  0  0
    4.7333    1.4359   -1.5980 C   0  0  0  0  0  0  0  0  0  0  0  0
    1.1607    0.7487   -0.9822 O   0  0  0  0  0  0  0  0  0  0  0  0
   -2.3014    1.5829   -1.9909 C   0  0  0  0  0  0  0  0  0  0  0  0
   -3.6117    1.2940   -1.7256 C   0  0  0  0  0  0  0  0  0  0  0  0
   -6.1189    0.5773   -1.1706 H   0  0  0  0  0  0  0  0  0  0  0  0
   -4.9979   -1.2339    0.9580 H   0  0  0  0  0  0  0  0  0  0  0  0
   -6.4121   -3.0647    1.3303 H   0  0  0  0  0  0  0  0  0  0  0  0
   -8.6000   -3.9312    2.1086 H   0  0  0  0  0  0  0  0  0  0  0  0
  -10.5849   -2.5290    2.0054 H   0  0  0  0  0  0  0  0  0  0  0  0
  -11.5862   -0.4931    1.5198 H   0  0  0  0  0  0  0  0  0  0  0  0
  -11.4988    1.8480    0.7565 H   0  0  0  0  0  0  0  0  0  0  0  0
   -9.3290    2.7413   -0.0057 H   0  0  0  0  0  0  0  0  0  0  0  0
   -7.3477    1.3855    0.0477 H   0  0  0  0  0  0  0  0  0  0  0  0
   -3.1782   -0.9811    0.7231 H   0  0  0  0  0  0  0  0  0  0  0  0
   -0.8837   -0.4431    0.2248 H   0  0  0  0  0  0  0  0  0  0  0  0
    3.0025   -0.5425    0.4610 H   0  0  0  0  0  0  0  0  0  0  0  0
    5.3447   -1.1232    1.1609 H   0  0  0  0  0  0  0  0  0  0  0  0
    8.7485    1.0716   -1.0738 H   0  0  0  0  0  0  0  0  0  0  0  0
   11.4477    0.8966   -0.7961 H   0  0  0  0  0  0  0  0  0  0  0  0
   13.3163   -0.0837    0.3157 H   0  0  0  0  0  0  0  0  0  0  0  0
   12.9625   -1.7964    2.1369 H   0  0  0  0  0  0  0  0  0  0  0  0
   10.6215   -2.4040    2.7088 H   0  0  0  0  0  0  0  0  0  0  0  0
    6.8897    1.6106   -1.7128 H   0  0  0  0  0  0  0  0  0  0  0  0
    4.5722    2.1632   -2.3817 H   0  0  0  0  0  0  0  0  0  0  0  0
   -2.0545    2.3030   -2.7534 H   0  0  0  0  0  0  0  0  0  0  0  0
   -4.4115    1.7876   -2.2806 H   0  0  0  0  0  0  0  0  0  0  0  0
  1  2  2  0
  2  3  1  0
  3  4  2  0
  4  5  1  0
  5  6  2  0
  6  7  1  0
  7  8  2  0
  8  9  1  0
  9 10  2  0
 10 11  1  0
 11 12  2  0
  1 13  1  0
 13 14  2  0
 14 15  1  0
 15 16  2  0
 16 17  1  0
 17 18  2  0
 18 19  1  0
 19 20  2  0
 20 21  1  0
 21 22  2  0
 22 23  1  0
 23 24  2  0
 24 25  1  0
 25 26  2  0
 26 27  1  0
 27 28  2  0
 28 29  1  0
 29 30  2  0
 30 31  1  0
 31 32  2  0
 32 33  1  0
 24 34  1  0
 34 35  2  0
 20 36  1  0
 16 37  1  0
 37 38  2  0
 12  3  1  0
 38 13  1  0
 12  7  1  0
 36 17  1  0
 35 21  1  0
 33 25  1  0
 32 27  1  0
  1 39  1  0
  2 40  1  0
  4 41  1  0
  5 42  1  0
  6 43  1  0
  8 44  1  0
  9 45  1  0
 10 46  1  0
 11 47  1  0
 14 48  1  0
 15 49  1  0
 22 50  1  0
 23 51  1  0
 26 52  1  0
 28 53  1  0
 29 54  1  0
 30 55  1  0
 31 56  1  0
 34 57  1  0
 35 58  1  0
 37 59  1  0
 38 60  1  0
M  END
