
     RDKit          3D

 18 18  0  0  0  0  0  0  0  0999 V2000
    2.9797   -1.7079    0.0812 O   0  0  0  0  0  0  0  0  0  0  0  0
    2.5468   -0.5396   -0.0638 C   0  0  0  0  0  0  0  0  0  0  0  0
    3.4730    0.4730   -0.2448 O   0  0  0  0  0  0  0  0  0  0  0  0
    1.1111   -0.3293   -0.0322 C   0  0  0  0  0  0  0  0  0  0  0  0
    0.2259   -1.3699    0.1509 C   0  0  0  0  0  0  0  0  0  0  0  0
   -1.1372   -1.1724    0.1811 C   0  0  0  0  0  0  0  0  0  0  0  0
   -1.9782   -2.2551    0.3683 O   0  0  0  0  0  0  0  0  0  0  0  0
   -1.6820    0.0899    0.0278 C   0  0  0  0  0  0  0  0  0  0  0  0
   -3.0675    0.2906    0.0586 O   0  0  0  0  0  0  0  0  0  0  0  0
   -0.8090    1.1411   -0.1563 C   0  0  0  0  0  0  0  0  0  0  0  0
   -1.3504    2.4110   -0.3108 O   0  0  0  0  0  0  0  0  0  0  0  0
    0.5515    0.9377   -0.1856 C   0  0  0  0  0  0  0  0  0  0  0  0
    4.3504    0.3847    0.2900 H   0  0  0  0  0  0  0  0  0  0  0  0
    0.6693   -2.3661    0.2713 H   0  0  0  0  0  0  0  0  0  0  0  0
   -2.9788   -2.1787    0.4001 H   0  0  0  0  0  0  0  0  0  0  0  0
   -3.4012    1.2374   -0.0596 H   0  0  0  0  0  0  0  0  0  0  0  0
   -0.7277    3.1908   -0.4463 H   0  0  0  0  0  0  0  0  0  0  0  0
    1.2244    1.7630   -0.3296 H   0  0  0  0  0  0  0  0  0  0  0  0
  1  2  2  0
  2  3  1  0
  2  4  1  0
  4  5  2  0
  5  6  1  0
  6  7  1  0
  6  8  2  0
  8  9  1  0
  8 10  1  0
 10 11  1  0
 10 12  2  0
 12  4  1  0
  3 13  1  0
  5 14  1  0
  7 15  1  0
  9 16  1  0
 11 17  1  0
 12 18  1  0
M  END
