
     RDKit          3D

 70 74  0  0  0  0  0  0  0  0999 V2000
   -6.2979   -0.0062    0.5911 C   0  0  0  0  0  0  0  0  0  0  0  0
   -5.1974   -1.3633    0.8382 S   0  0  0  0  0  0  0  0  0  0  0  0
   -3.5620   -0.8946    0.2482 C   0  0  0  0  0  0  0  0  0  0  0  0
   -2.5678   -0.6660    1.0809 C   0  0  0  0  0  0  0  0  0  0  0  0
   -1.2342   -0.2884    0.6970 C   0  0  0  0  0  0  0  0  0  0  0  0
   -0.8679   -0.1281   -0.5990 C   0  0  0  0  0  0  0  0  0  0  0  0
    0.4304    0.2370   -0.9125 C   0  0  0  0  0  0  0  0  0  0  0  0
    1.3937    0.4517    0.0390 C   0  0  0  0  0  0  0  0  0  0  0  0
    2.7497    0.8334   -0.2924 C   0  0  0  0  0  0  0  0  0  0  0  0
    3.7212    1.0559    0.5410 C   0  0  0  0  0  0  0  0  0  0  0  0
    5.3318    1.5196   -0.0708 S   0  0  0  0  0  0  0  0  0  0  0  0
    6.2679    0.1232   -0.5923 C   0  0  0  0  0  0  0  0  0  0  0  0
    7.5754    0.1435   -0.7200 C   0  0  0  0  0  0  0  0  0  0  0  0
    8.3238    1.3383   -0.4410 C   0  0  0  0  0  0  0  0  0  0  0  0
    9.6194    1.2394    0.0383 C   0  0  0  0  0  0  0  0  0  0  0  0
   10.4467    2.3279    0.2389 C   0  0  0  0  0  0  0  0  0  0  0  0
    9.9355    3.5694   -0.0583 C   0  0  0  0  0  0  0  0  0  0  0  0
    8.6579    3.7347   -0.5360 C   0  0  0  0  0  0  0  0  0  0  0  0
    7.8669    2.5919   -0.7203 C   0  0  0  0  0  0  0  0  0  0  0  0
    8.2477   -1.1115   -1.1518 C   0  0  0  0  0  0  0  0  0  0  0  0
    9.5079   -1.0632   -1.6540 C   0  0  0  0  0  0  0  0  0  0  0  0
   10.1926   -2.2482   -1.9993 C   0  0  0  0  0  0  0  0  0  0  0  0
    9.5872   -3.4548   -1.8311 C   0  0  0  0  0  0  0  0  0  0  0  0
    8.3155   -3.4874   -1.3253 C   0  0  0  0  0  0  0  0  0  0  0  0
    7.6286   -2.3234   -0.9791 C   0  0  0  0  0  0  0  0  0  0  0  0
    1.0313    0.2917    1.3517 C   0  0  0  0  0  0  0  0  0  0  0  0
   -0.2850   -0.0787    1.6750 C   0  0  0  0  0  0  0  0  0  0  0  0
   -7.5962   -0.1143    0.4234 C   0  0  0  0  0  0  0  0  0  0  0  0
   -8.2392   -1.4152    0.4382 C   0  0  0  0  0  0  0  0  0  0  0  0
   -9.3589   -1.5855   -0.3608 C   0  0  0  0  0  0  0  0  0  0  0  0
  -10.0617   -2.7607   -0.3139 C   0  0  0  0  0  0  0  0  0  0  0  0
   -9.6702   -3.7887    0.5211 C   0  0  0  0  0  0  0  0  0  0  0  0
   -8.5584   -3.6081    1.3071 C   0  0  0  0  0  0  0  0  0  0  0  0
   -7.8554   -2.4271    1.2596 C   0  0  0  0  0  0  0  0  0  0  0  0
   -8.4181    1.0977    0.2122 C   0  0  0  0  0  0  0  0  0  0  0  0
   -9.7696    1.0828    0.4098 C   0  0  0  0  0  0  0  0  0  0  0  0
  -10.5758    2.2031    0.1496 C   0  0  0  0  0  0  0  0  0  0  0  0
  -10.0309    3.3748   -0.3181 C   0  0  0  0  0  0  0  0  0  0  0  0
   -8.6712    3.3886   -0.5144 C   0  0  0  0  0  0  0  0  0  0  0  0
   -7.8682    2.2756   -0.2575 C   0  0  0  0  0  0  0  0  0  0  0  0
   -5.8690    1.0102    0.5864 H   0  0  0  0  0  0  0  0  0  0  0  0
   -3.4024   -0.8020   -0.7974 H   0  0  0  0  0  0  0  0  0  0  0  0
   -2.8330   -0.7880    2.1438 H   0  0  0  0  0  0  0  0  0  0  0  0
   -1.5470   -0.2722   -1.4228 H   0  0  0  0  0  0  0  0  0  0  0  0
    0.7322    0.3678   -1.9537 H   0  0  0  0  0  0  0  0  0  0  0  0
    2.9650    0.9428   -1.3722 H   0  0  0  0  0  0  0  0  0  0  0  0
    3.5610    0.9624    1.5989 H   0  0  0  0  0  0  0  0  0  0  0  0
    5.6953   -0.7804   -0.8205 H   0  0  0  0  0  0  0  0  0  0  0  0
   10.0435    0.2658    0.3251 H   0  0  0  0  0  0  0  0  0  0  0  0
   11.4505    2.2463    0.6092 H   0  0  0  0  0  0  0  0  0  0  0  0
   10.5791    4.4243    0.0977 H   0  0  0  0  0  0  0  0  0  0  0  0
    8.2895    4.7213   -0.7577 H   0  0  0  0  0  0  0  0  0  0  0  0
    6.9005    2.7958   -1.1258 H   0  0  0  0  0  0  0  0  0  0  0  0
   10.0209   -0.1298   -1.8532 H   0  0  0  0  0  0  0  0  0  0  0  0
   11.1946   -2.1951   -2.3960 H   0  0  0  0  0  0  0  0  0  0  0  0
   10.0901   -4.3842   -2.0884 H   0  0  0  0  0  0  0  0  0  0  0  0
    7.8156   -4.4371   -1.1844 H   0  0  0  0  0  0  0  0  0  0  0  0
    6.6374   -2.4327   -0.5810 H   0  0  0  0  0  0  0  0  0  0  0  0
    1.7283    0.4414    2.1587 H   0  0  0  0  0  0  0  0  0  0  0  0
   -0.5145   -0.1910    2.7361 H   0  0  0  0  0  0  0  0  0  0  0  0
   -9.6737   -0.8063   -1.0660 H   0  0  0  0  0  0  0  0  0  0  0  0
  -10.9231   -2.8776   -0.9337 H   0  0  0  0  0  0  0  0  0  0  0  0
  -10.2157   -4.7213    0.5672 H   0  0  0  0  0  0  0  0  0  0  0  0
   -8.2336   -4.4036    1.9694 H   0  0  0  0  0  0  0  0  0  0  0  0
   -6.9942   -2.3137    1.9278 H   0  0  0  0  0  0  0  0  0  0  0  0
  -10.2975    0.2199    0.8220 H   0  0  0  0  0  0  0  0  0  0  0  0
  -11.6469    2.1784    0.3088 H   0  0  0  0  0  0  0  0  0  0  0  0
  -10.6400    4.2358   -0.5194 H   0  0  0  0  0  0  0  0  0  0  0  0
   -8.2401    4.3157   -0.8835 H   0  0  0  0  0  0  0  0  0  0  0  0
   -6.8180    2.3402   -0.4354 H   0  0  0  0  0  0  0  0  0  0  0  0
  1  2  1  0
  2  3  1  0
  3  4  2  0
  4  5  1  0
  5  6  2  0
  6  7  1  0
  7  8  2  0
  8  9  1  0
  9 10  2  0
 10 11  1  0
 11 12  1  0
 12 13  2  3
 13 14  1  0
 14 15  2  0
 15 16  1  0
 16 17  2  0
 17 18  1  0
 18 19  2  0
 13 20  1  0
 20 21  2  0
 21 22  1  0
 22 23  2  0
 23 24  1  0
 24 25  2  0
  8 26  1  0
 26 27  2  0
  1 28  2  3
 28 29  1  0
 29 30  2  0
 30 31  1  0
 31 32  2  0
 32 33  1  0
 33 34  2  0
 28 35  1  0
 35 36  2  0
 36 37  1  0
 37 38  2  0
 38 39  1  0
 39 40  2  0
 27  5  1  0
 34 29  1  0
 40 35  1  0
 19 14  1  0
 25 20  1  0
  1 41  1  0
  3 42  1  0
  4 43  1  0
  6 44  1  0
  7 45  1  0
  9 46  1  0
 10 47  1  0
 12 48  1  0
 15 49  1  0
 16 50  1  0
 17 51  1  0
 18 52  1  0
 19 53  1  0
 21 54  1  0
 22 55  1  0
 23 56  1  0
 24 57  1  0
 25 58  1  0
 26 59  1  0
 27 60  1  0
 30 61  1  0
 31 62  1  0
 32 63  1  0
 33 64  1  0
 34 65  1  0
 36 66  1  0
 37 67  1  0
 38 68  1  0
 39 69  1  0
 40 70  1  0
M  END
