
     RDKit          3D

110118  0  0  0  0  0  0  0  0999 V2000
    3.5950    3.3896   -5.4862 C   0  0  0  0  0  0  0  0  0  0  0  0
    2.8179    2.7923   -4.3824 C   0  0  0  0  0  0  0  0  0  0  0  0
    2.0110    3.5980   -3.5748 C   0  0  0  0  0  0  0  0  0  0  0  0
    1.2952    3.0389   -2.5485 C   0  0  0  0  0  0  0  0  0  0  0  0
    1.3663    1.7090   -2.3119 C   0  0  0  0  0  0  0  0  0  0  0  0
    0.6224    1.0161   -1.2665 C   0  0  0  0  0  0  0  0  0  0  0  0
   -0.7519    1.0645   -1.1967 C   0  0  0  0  0  0  0  0  0  0  0  0
   -1.4476    0.3403   -0.1984 C   0  0  0  0  0  0  0  0  0  0  0  0
   -2.8976    0.3956   -0.2286 C   0  0  0  0  0  0  0  0  0  0  0  0
   -3.7608    0.1844    0.6992 C   0  0  0  0  0  0  0  0  0  0  0  0
   -5.2173    0.2715    0.4814 C   0  0  0  0  0  0  0  0  0  0  0  0
   -6.0418    0.0877    1.5959 C   0  0  0  0  0  0  0  0  0  0  0  0
   -7.3965    0.1103    1.4150 C   0  0  0  0  0  0  0  0  0  0  0  0
   -7.9424    0.3175    0.1158 C   0  0  0  0  0  0  0  0  0  0  0  0
   -9.3846    0.3204    0.0469 N   0  0  0  0  0  0  0  0  0  0  0  0
  -10.1652   -0.3708   -0.8919 C   0  0  0  0  0  0  0  0  0  0  0  0
   -9.9707   -0.2294   -2.2402 C   0  0  0  0  0  0  0  0  0  0  0  0
  -10.6664   -1.0109   -3.1737 C   0  0  0  0  0  0  0  0  0  0  0  0
  -11.5761   -1.9508   -2.7464 C   0  0  0  0  0  0  0  0  0  0  0  0
  -11.7964   -2.1173   -1.4034 C   0  0  0  0  0  0  0  0  0  0  0  0
  -11.1020   -1.3411   -0.4949 C   0  0  0  0  0  0  0  0  0  0  0  0
   -9.9257    1.2791    0.9936 C   0  0  0  0  0  0  0  0  0  0  0  0
  -10.9525    1.0229    1.8207 C   0  0  0  0  0  0  0  0  0  0  0  0
  -11.4212    2.0302    2.6825 C   0  0  0  0  0  0  0  0  0  0  0  0
  -10.8602    3.2877    2.7131 C   0  0  0  0  0  0  0  0  0  0  0  0
   -9.8120    3.5339    1.8631 C   0  0  0  0  0  0  0  0  0  0  0  0
   -9.3389    2.5557    1.0094 C   0  0  0  0  0  0  0  0  0  0  0  0
   -7.1591    0.4955   -0.9508 C   0  0  0  0  0  0  0  0  0  0  0  0
   -5.7539    0.4716   -0.7609 C   0  0  0  0  0  0  0  0  0  0  0  0
   -0.7674   -0.4167    0.7055 C   0  0  0  0  0  0  0  0  0  0  0  0
   -1.3824   -1.2965    1.6977 C   0  0  0  0  0  0  0  0  0  0  0  0
   -2.2226   -2.3528    1.3848 C   0  0  0  0  0  0  0  0  0  0  0  0
   -2.7761   -3.1620    2.3540 C   0  0  0  0  0  0  0  0  0  0  0  0
   -2.5129   -2.9505    3.6888 C   0  0  0  0  0  0  0  0  0  0  0  0
   -3.1176   -3.8292    4.7367 C   0  0  0  0  0  0  0  0  0  0  0  0
   -1.6770   -1.9012    4.0168 C   0  0  0  0  0  0  0  0  0  0  0  0
   -1.1253   -1.0939    3.0363 C   0  0  0  0  0  0  0  0  0  0  0  0
    0.6417   -0.4413    0.6056 C   0  0  0  0  0  0  0  0  0  0  0  0
    1.3246    0.2602   -0.3594 C   0  0  0  0  0  0  0  0  0  0  0  0
    2.7734    0.2628   -0.4052 C   0  0  0  0  0  0  0  0  0  0  0  0
    3.5692   -0.5293    0.2980 C   0  0  0  0  0  0  0  0  0  0  0  0
    5.0195   -0.4576    0.1920 C   0  0  0  0  0  0  0  0  0  0  0  0
    5.7148    0.4738   -0.5214 C   0  0  0  0  0  0  0  0  0  0  0  0
    7.1159    0.4705   -0.6138 C   0  0  0  0  0  0  0  0  0  0  0  0
    7.8576   -0.4659    0.0059 C   0  0  0  0  0  0  0  0  0  0  0  0
    9.2867   -0.5922    0.0347 N   0  0  0  0  0  0  0  0  0  0  0  0
   10.1677   -0.4361   -1.0359 C   0  0  0  0  0  0  0  0  0  0  0  0
   10.1746    0.7118   -1.8207 C   0  0  0  0  0  0  0  0  0  0  0  0
   10.9550    0.8425   -2.9610 C   0  0  0  0  0  0  0  0  0  0  0  0
   11.7735   -0.1689   -3.3780 C   0  0  0  0  0  0  0  0  0  0  0  0
   11.7929   -1.3114   -2.6307 C   0  0  0  0  0  0  0  0  0  0  0  0
   11.0052   -1.4458   -1.4810 C   0  0  0  0  0  0  0  0  0  0  0  0
    9.7966   -0.7732    1.3711 C   0  0  0  0  0  0  0  0  0  0  0  0
    9.2563    0.0944    2.3197 C   0  0  0  0  0  0  0  0  0  0  0  0
    9.6630    0.0021    3.6327 C   0  0  0  0  0  0  0  0  0  0  0  0
   10.5948   -0.9401    3.9966 C   0  0  0  0  0  0  0  0  0  0  0  0
   11.1416   -1.8064    3.0782 C   0  0  0  0  0  0  0  0  0  0  0  0
   10.7166   -1.6987    1.7508 C   0  0  0  0  0  0  0  0  0  0  0  0
    7.1563   -1.4286    0.7420 C   0  0  0  0  0  0  0  0  0  0  0  0
    5.7861   -1.4236    0.8319 C   0  0  0  0  0  0  0  0  0  0  0  0
    2.1729    0.8935   -3.1169 C   0  0  0  0  0  0  0  0  0  0  0  0
    2.9016    1.4309   -4.1550 C   0  0  0  0  0  0  0  0  0  0  0  0
    3.5520    2.7272   -6.3758 H   0  0  0  0  0  0  0  0  0  0  0  0
    4.6876    3.4678   -5.2445 H   0  0  0  0  0  0  0  0  0  0  0  0
    3.2626    4.3873   -5.7811 H   0  0  0  0  0  0  0  0  0  0  0  0
    1.9434    4.6641   -3.7499 H   0  0  0  0  0  0  0  0  0  0  0  0
    0.6831    3.6803   -1.9405 H   0  0  0  0  0  0  0  0  0  0  0  0
   -1.3023    1.6651   -1.9143 H   0  0  0  0  0  0  0  0  0  0  0  0
   -3.3102    0.6594   -1.2238 H   0  0  0  0  0  0  0  0  0  0  0  0
   -3.3921   -0.0128    1.7010 H   0  0  0  0  0  0  0  0  0  0  0  0
   -5.5865   -0.0683    2.5725 H   0  0  0  0  0  0  0  0  0  0  0  0
   -8.0780   -0.0275    2.2464 H   0  0  0  0  0  0  0  0  0  0  0  0
   -9.3284    0.5032   -2.6781 H   0  0  0  0  0  0  0  0  0  0  0  0
  -10.4996   -0.8892   -4.2393 H   0  0  0  0  0  0  0  0  0  0  0  0
  -12.0937   -2.5345   -3.4912 H   0  0  0  0  0  0  0  0  0  0  0  0
  -12.5087   -2.8551   -1.0858 H   0  0  0  0  0  0  0  0  0  0  0  0
  -11.2633   -1.5154    0.5458 H   0  0  0  0  0  0  0  0  0  0  0  0
  -11.4648    0.0778    1.8905 H   0  0  0  0  0  0  0  0  0  0  0  0
  -12.2598    1.7780    3.3374 H   0  0  0  0  0  0  0  0  0  0  0  0
  -11.2520    4.0451    3.3963 H   0  0  0  0  0  0  0  0  0  0  0  0
   -9.3654    4.5256    1.8834 H   0  0  0  0  0  0  0  0  0  0  0  0
   -8.5283    2.7219    0.3427 H   0  0  0  0  0  0  0  0  0  0  0  0
   -7.4648    0.6674   -1.9570 H   0  0  0  0  0  0  0  0  0  0  0  0
   -5.1608    0.6194   -1.6471 H   0  0  0  0  0  0  0  0  0  0  0  0
   -2.4634   -2.5619    0.3590 H   0  0  0  0  0  0  0  0  0  0  0  0
   -3.4348   -3.9869    2.0973 H   0  0  0  0  0  0  0  0  0  0  0  0
   -2.6958   -3.6179    5.7342 H   0  0  0  0  0  0  0  0  0  0  0  0
   -4.2183   -3.7697    4.7060 H   0  0  0  0  0  0  0  0  0  0  0  0
   -2.8360   -4.8697    4.4694 H   0  0  0  0  0  0  0  0  0  0  0  0
   -1.4684   -1.7303    5.0648 H   0  0  0  0  0  0  0  0  0  0  0  0
   -0.4704   -0.2736    3.3281 H   0  0  0  0  0  0  0  0  0  0  0  0
    1.1534   -1.0472    1.3406 H   0  0  0  0  0  0  0  0  0  0  0  0
    3.2614    0.9860   -1.0589 H   0  0  0  0  0  0  0  0  0  0  0  0
    3.1001   -1.2369    0.9626 H   0  0  0  0  0  0  0  0  0  0  0  0
    5.2057    1.2511   -1.0414 H   0  0  0  0  0  0  0  0  0  0  0  0
    7.6140    1.2248   -1.1879 H   0  0  0  0  0  0  0  0  0  0  0  0
    9.6069    1.6101   -1.5746 H   0  0  0  0  0  0  0  0  0  0  0  0
   10.9315    1.7626   -3.5532 H   0  0  0  0  0  0  0  0  0  0  0  0
   12.3961   -0.0756   -4.2778 H   0  0  0  0  0  0  0  0  0  0  0  0
   12.4306   -2.1235   -2.9343 H   0  0  0  0  0  0  0  0  0  0  0  0
   11.0834   -2.4138   -1.0078 H   0  0  0  0  0  0  0  0  0  0  0  0
    8.5224    0.8310    2.0006 H   0  0  0  0  0  0  0  0  0  0  0  0
    9.2486    0.6684    4.3646 H   0  0  0  0  0  0  0  0  0  0  0  0
   10.8986   -0.9967    5.0292 H   0  0  0  0  0  0  0  0  0  0  0  0
   11.8730   -2.5577    3.3133 H   0  0  0  0  0  0  0  0  0  0  0  0
   11.1460   -2.3888    1.0540 H   0  0  0  0  0  0  0  0  0  0  0  0
    7.6760   -2.2167    1.2702 H   0  0  0  0  0  0  0  0  0  0  0  0
    5.2451   -2.1807    1.4124 H   0  0  0  0  0  0  0  0  0  0  0  0
    2.2424   -0.1844   -2.9391 H   0  0  0  0  0  0  0  0  0  0  0  0
    3.5380    0.7983   -4.7934 H   0  0  0  0  0  0  0  0  0  0  0  0
  1  2  1  0
  2  3  2  0
  3  4  1  0
  4  5  2  0
  5  6  1  0
  6  7  2  0
  7  8  1  0
  8  9  1  0
  9 10  2  0
 10 11  1  0
 11 12  2  0
 12 13  1  0
 13 14  2  0
 14 15  1  0
 15 16  1  0
 16 17  2  0
 17 18  1  0
 18 19  2  0
 19 20  1  0
 20 21  2  0
 15 22  1  0
 22 23  2  0
 23 24  1  0
 24 25  2  0
 25 26  1  0
 26 27  2  0
 14 28  1  0
 28 29  2  0
  8 30  2  0
 30 31  1  0
 31 32  2  0
 32 33  1  0
 33 34  2  0
 34 35  1  0
 34 36  1  0
 36 37  2  0
 30 38  1  0
 38 39  2  0
 39 40  1  0
 40 41  2  0
 41 42  1  0
 42 43  2  0
 43 44  1  0
 44 45  2  0
 45 46  1  0
 46 47  1  0
 47 48  2  0
 48 49  1  0
 49 50  2  0
 50 51  1  0
 51 52  2  0
 46 53  1  0
 53 54  2  0
 54 55  1  0
 55 56  2  0
 56 57  1  0
 57 58  2  0
 45 59  1  0
 59 60  2  0
  5 61  1  0
 61 62  2  0
 62  2  1  0
 39  6  1  0
 60 42  1  0
 29 11  1  0
 37 31  1  0
 52 47  1  0
 58 53  1  0
 21 16  1  0
 27 22  1  0
  1 63  1  0
  1 64  1  0
  1 65  1  0
  3 66  1  0
  4 67  1  0
  7 68  1  0
  9 69  1  0
 10 70  1  0
 12 71  1  0
 13 72  1  0
 17 73  1  0
 18 74  1  0
 19 75  1  0
 20 76  1  0
 21 77  1  0
 23 78  1  0
 24 79  1  0
 25 80  1  0
 26 81  1  0
 27 82  1  0
 28 83  1  0
 29 84  1  0
 32 85  1  0
 33 86  1  0
 35 87  1  0
 35 88  1  0
 35 89  1  0
 36 90  1  0
 37 91  1  0
 38 92  1  0
 40 93  1  0
 41 94  1  0
 43 95  1  0
 44 96  1  0
 48 97  1  0
 49 98  1  0
 50 99  1  0
 51100  1  0
 52101  1  0
 54102  1  0
 55103  1  0
 56104  1  0
 57105  1  0
 58106  1  0
 59107  1  0
 60108  1  0
 61109  1  0
 62110  1  0
M  END
