
     RDKit          3D

 26 28  0  0  0  0  0  0  0  0999 V2000
    0.9265    2.8269    1.1847 O   0  0  0  0  0  0  0  0  0  0  0  0
   -0.0925    2.1368    0.9606 C   0  0  0  0  0  0  0  0  0  0  0  0
   -1.2302    2.8107    1.3359 O   0  0  0  0  0  0  0  0  0  0  0  0
   -0.0040    0.8221    0.3847 C   0  0  0  0  0  0  0  0  0  0  0  0
   -1.1771    0.0702    0.1451 C   0  0  0  0  0  0  0  0  0  0  0  0
   -2.4171    0.5673    0.4514 C   0  0  0  0  0  0  0  0  0  0  0  0
   -3.5310   -0.2216    0.1914 C   0  0  0  0  0  0  0  0  0  0  0  0
   -3.4144   -1.4753   -0.3601 C   0  0  0  0  0  0  0  0  0  0  0  0
   -2.1699   -1.9498   -0.6569 C   0  0  0  0  0  0  0  0  0  0  0  0
   -1.0172   -1.1926   -0.4135 C   0  0  0  0  0  0  0  0  0  0  0  0
    0.1722   -1.7118   -0.7257 N   0  0  0  0  0  0  0  0  0  0  0  0
    1.2691   -0.9901   -0.4936 C   0  0  0  0  0  0  0  0  0  0  0  0
    2.4830   -1.5941   -0.8442 C   0  0  0  0  0  0  0  0  0  0  0  0
    3.6494   -0.9021   -0.6301 C   0  0  0  0  0  0  0  0  0  0  0  0
    3.6293    0.3474   -0.0875 C   0  0  0  0  0  0  0  0  0  0  0  0
    2.4161    0.9516    0.2632 C   0  0  0  0  0  0  0  0  0  0  0  0
    1.2490    0.2752    0.0559 C   0  0  0  0  0  0  0  0  0  0  0  0
   -1.4938    3.7320    1.0172 H   0  0  0  0  0  0  0  0  0  0  0  0
   -2.5470    1.5412    0.8827 H   0  0  0  0  0  0  0  0  0  0  0  0
   -4.5131    0.1708    0.4335 H   0  0  0  0  0  0  0  0  0  0  0  0
   -4.2791   -2.1156   -0.5740 H   0  0  0  0  0  0  0  0  0  0  0  0
   -2.0323   -2.9276   -1.0905 H   0  0  0  0  0  0  0  0  0  0  0  0
    2.4795   -2.5787   -1.2704 H   0  0  0  0  0  0  0  0  0  0  0  0
    4.6090   -1.3615   -0.8995 H   0  0  0  0  0  0  0  0  0  0  0  0
    4.5511    0.8568    0.0655 H   0  0  0  0  0  0  0  0  0  0  0  0
    2.4844    1.9118    0.6741 H   0  0  0  0  0  0  0  0  0  0  0  0
  1  2  2  0
  2  3  1  0
  2  4  1  0
  4  5  2  0
  5  6  1  0
  6  7  2  0
  7  8  1  0
  8  9  2  0
  9 10  1  0
 10 11  2  0
 11 12  1  0
 12 13  2  0
 13 14  1  0
 14 15  2  0
 15 16  1  0
 16 17  2  0
 17  4  1  0
 10  5  1  0
 17 12  1  0
  3 18  1  0
  6 19  1  0
  7 20  1  0
  8 21  1  0
  9 22  1  0
 13 23  1  0
 14 24  1  0
 15 25  1  0
 16 26  1  0
M  END
