
     RDKit          3D

 30 33  0  0  0  0  0  0  0  0999 V2000
    6.4737    1.0079    0.7532 C   0  0  0  0  0  0  0  0  0  0  0  0
    7.2442   -0.0133    0.2668 C   0  0  0  0  0  0  0  0  0  0  0  0
    6.0839   -1.1174   -0.3192 S   0  0  0  0  0  0  0  0  0  0  0  0
    4.6682   -0.2601    0.0660 C   0  0  0  0  0  0  0  0  0  0  0  0
    3.2562   -0.6104   -0.1515 C   0  0  0  0  0  0  0  0  0  0  0  0
    2.7436   -1.7401   -0.7307 C   0  0  0  0  0  0  0  0  0  0  0  0
    1.4075   -1.8309   -0.8164 C   0  0  0  0  0  0  0  0  0  0  0  0
    0.6774   -0.7926   -0.3202 C   0  0  0  0  0  0  0  0  0  0  0  0
   -0.7957   -0.6412   -0.2891 C   0  0  0  0  0  0  0  0  0  0  0  0
   -1.7274   -1.5209   -0.7564 C   0  0  0  0  0  0  0  0  0  0  0  0
   -3.0214   -1.1711   -0.6208 C   0  0  0  0  0  0  0  0  0  0  0  0
   -3.2814    0.0297   -0.0293 C   0  0  0  0  0  0  0  0  0  0  0  0
   -4.6206    0.6197    0.2247 C   0  0  0  0  0  0  0  0  0  0  0  0
   -4.8843    1.8249    0.8183 C   0  0  0  0  0  0  0  0  0  0  0  0
   -6.1836    2.1631    0.9479 C   0  0  0  0  0  0  0  0  0  0  0  0
   -7.1155    1.2810    0.4794 C   0  0  0  0  0  0  0  0  0  0  0  0
   -6.1635    0.0052   -0.1286 S   0  0  0  0  0  0  0  0  0  0  0  0
   -1.7345    0.6403    0.3222 S   0  0  0  0  0  0  0  0  0  0  0  0
    1.8663    0.2832    0.2526 S   0  0  0  0  0  0  0  0  0  0  0  0
    5.1422    0.8804    0.6494 C   0  0  0  0  0  0  0  0  0  0  0  0
    6.9677    1.8972    1.2119 H   0  0  0  0  0  0  0  0  0  0  0  0
    8.3480   -0.0652    0.2742 H   0  0  0  0  0  0  0  0  0  0  0  0
    3.4134   -2.5476   -1.1135 H   0  0  0  0  0  0  0  0  0  0  0  0
    0.8725   -2.7010   -1.2668 H   0  0  0  0  0  0  0  0  0  0  0  0
   -1.4047   -2.4816   -1.2262 H   0  0  0  0  0  0  0  0  0  0  0  0
   -3.8627   -1.8155   -0.9679 H   0  0  0  0  0  0  0  0  0  0  0  0
   -4.0606    2.4941    1.1772 H   0  0  0  0  0  0  0  0  0  0  0  0
   -6.5251    3.1189    1.4146 H   0  0  0  0  0  0  0  0  0  0  0  0
   -8.2178    1.4014    0.5062 H   0  0  0  0  0  0  0  0  0  0  0  0
    4.4341    1.6618    1.0180 H   0  0  0  0  0  0  0  0  0  0  0  0
  1  2  2  0
  2  3  1  0
  3  4  1  0
  4  5  1  0
  5  6  2  0
  6  7  1  0
  7  8  2  0
  8  9  1  0
  9 10  2  0
 10 11  1  0
 11 12  2  0
 12 13  1  0
 13 14  2  0
 14 15  1  0
 15 16  2  0
 16 17  1  0
 12 18  1  0
  8 19  1  0
  4 20  2  0
 20  1  1  0
 19  5  1  0
 18  9  1  0
 17 13  1  0
  1 21  1  0
  2 22  1  0
  6 23  1  0
  7 24  1  0
 10 25  1  0
 11 26  1  0
 14 27  1  0
 15 28  1  0
 16 29  1  0
 20 30  1  0
M  END
