
     RDKit          3D

 34 36  0  0  0  0  0  0  0  0999 V2000
    2.0523   -3.8201   -1.7654 N   0  0  0  0  0  0  0  0  0  0  0  0
    1.4763   -2.8206   -1.3295 C   0  0  0  0  0  0  0  0  0  0  0  0
    0.8097   -1.6597   -0.8495 C   0  0  0  0  0  0  0  0  0  0  0  0
   -0.5103   -1.4787   -0.8401 N   0  0  0  0  0  0  0  0  0  0  0  0
   -0.8952   -0.3121   -0.3814 N   0  0  0  0  0  0  0  0  0  0  0  0
   -2.2363    0.1404   -0.3256 C   0  0  0  0  0  0  0  0  0  0  0  0
   -2.8182    0.4966   -1.5542 C   0  0  0  0  0  0  0  0  0  0  0  0
   -4.1220    0.9188   -1.6457 C   0  0  0  0  0  0  0  0  0  0  0  0
   -4.9238    1.0087   -0.5026 C   0  0  0  0  0  0  0  0  0  0  0  0
   -4.3416    0.6511    0.7240 C   0  0  0  0  0  0  0  0  0  0  0  0
   -5.2285    0.7693    1.9014 C   0  0  0  0  0  0  0  0  0  0  0  0
   -5.5281    2.0833    2.1404 F   0  0  0  0  0  0  0  0  0  0  0  0
   -4.6014    0.2564    3.0555 F   0  0  0  0  0  0  0  0  0  0  0  0
   -6.4067    0.0574    1.7076 F   0  0  0  0  0  0  0  0  0  0  0  0
   -3.0389    0.2345    0.7771 C   0  0  0  0  0  0  0  0  0  0  0  0
    0.2282    0.3126   -0.0634 N   0  0  0  0  0  0  0  0  0  0  0  0
    1.3140   -0.4681   -0.3308 C   0  0  0  0  0  0  0  0  0  0  0  0
    2.6957   -0.2454   -0.1765 N   0  0  0  0  0  0  0  0  0  0  0  0
    3.5941   -0.6316    0.8825 C   0  0  0  0  0  0  0  0  0  0  0  0
    4.7879    0.3076    0.6866 C   0  0  0  0  0  0  0  0  0  0  0  0
    4.9424    0.2037   -0.8477 C   0  0  0  0  0  0  0  0  0  0  0  0
    3.4802    0.4028   -1.2316 C   0  0  0  0  0  0  0  0  0  0  0  0
   -2.1950    0.4241   -2.4555 H   0  0  0  0  0  0  0  0  0  0  0  0
   -4.6051    1.1981   -2.5679 H   0  0  0  0  0  0  0  0  0  0  0  0
   -5.9354    1.3397   -0.5829 H   0  0  0  0  0  0  0  0  0  0  0  0
   -2.6283   -0.0410    1.7311 H   0  0  0  0  0  0  0  0  0  0  0  0
    3.9734   -1.6617    0.7359 H   0  0  0  0  0  0  0  0  0  0  0  0
    3.1543   -0.4765    1.8921 H   0  0  0  0  0  0  0  0  0  0  0  0
    5.6728   -0.0526    1.2156 H   0  0  0  0  0  0  0  0  0  0  0  0
    4.5209    1.3312    0.9978 H   0  0  0  0  0  0  0  0  0  0  0  0
    5.6178    0.9416   -1.2614 H   0  0  0  0  0  0  0  0  0  0  0  0
    5.1797   -0.8597   -1.0588 H   0  0  0  0  0  0  0  0  0  0  0  0
    3.2526   -0.0497   -2.2022 H   0  0  0  0  0  0  0  0  0  0  0  0
    3.2625    1.4996   -1.2480 H   0  0  0  0  0  0  0  0  0  0  0  0
  1  2  3  0
  2  3  1  0
  3  4  2  0
  4  5  1  0
  5  6  1  0
  6  7  2  0
  7  8  1  0
  8  9  2  0
  9 10  1  0
 10 11  1  0
 11 12  1  0
 11 13  1  0
 11 14  1  0
 10 15  2  0
  5 16  1  0
 16 17  2  0
 17 18  1  0
 18 19  1  0
 19 20  1  0
 20 21  1  0
 21 22  1  0
 17  3  1  0
 22 18  1  0
 15  6  1  0
  7 23  1  0
  8 24  1  0
  9 25  1  0
 15 26  1  0
 19 27  1  0
 19 28  1  0
 20 29  1  0
 20 30  1  0
 21 31  1  0
 21 32  1  0
 22 33  1  0
 22 34  1  0
M  END
