
     RDKit          3D

 78 85  0  0  0  0  0  0  0  0999 V2000
   -8.6569    3.5348   -3.3885 C   0  0  0  0  0  0  0  0  0  0  0  0
   -7.8896    3.8362   -2.2444 O   0  0  0  0  0  0  0  0  0  0  0  0
   -7.2124    2.8205   -1.5866 C   0  0  0  0  0  0  0  0  0  0  0  0
   -6.4598    3.0768   -0.4754 C   0  0  0  0  0  0  0  0  0  0  0  0
   -5.7879    2.0914    0.1851 C   0  0  0  0  0  0  0  0  0  0  0  0
   -5.8246    0.7527   -0.2360 C   0  0  0  0  0  0  0  0  0  0  0  0
   -5.0138   -0.2194    0.3720 N   0  0  0  0  0  0  0  0  0  0  0  0
   -5.5379   -1.4172    0.9589 C   0  0  0  0  0  0  0  0  0  0  0  0
   -6.4643   -2.2262    0.4095 C   0  0  0  0  0  0  0  0  0  0  0  0
   -6.8935   -3.3787    1.1109 C   0  0  0  0  0  0  0  0  0  0  0  0
   -6.3985   -3.7120    2.3450 C   0  0  0  0  0  0  0  0  0  0  0  0
   -5.4522   -2.8693    2.8858 C   0  0  0  0  0  0  0  0  0  0  0  0
   -5.0276   -1.7627    2.2332 C   0  0  0  0  0  0  0  0  0  0  0  0
   -3.5821   -0.1299    0.2989 C   0  0  0  0  0  0  0  0  0  0  0  0
   -2.8465    0.9792    0.4859 C   0  0  0  0  0  0  0  0  0  0  0  0
   -1.4556    0.9574    0.4000 C   0  0  0  0  0  0  0  0  0  0  0  0
   -0.7053    2.0867    0.5907 C   0  0  0  0  0  0  0  0  0  0  0  0
    0.6672    2.0559    0.5039 C   0  0  0  0  0  0  0  0  0  0  0  0
    1.3262    0.8656    0.2181 C   0  0  0  0  0  0  0  0  0  0  0  0
    2.7076    0.8621    0.1366 C   0  0  0  0  0  0  0  0  0  0  0  0
    3.3497   -0.3093   -0.1443 C   0  0  0  0  0  0  0  0  0  0  0  0
    4.7453   -0.3749   -0.2397 N   0  0  0  0  0  0  0  0  0  0  0  0
    5.2951   -1.1076   -1.3504 C   0  0  0  0  0  0  0  0  0  0  0  0
    4.7663   -0.9131   -2.5934 C   0  0  0  0  0  0  0  0  0  0  0  0
    5.2649   -1.5980   -3.6934 C   0  0  0  0  0  0  0  0  0  0  0  0
    6.3070   -2.4878   -3.5378 C   0  0  0  0  0  0  0  0  0  0  0  0
    6.8142   -2.6585   -2.2740 C   0  0  0  0  0  0  0  0  0  0  0  0
    6.3296   -1.9858   -1.1728 C   0  0  0  0  0  0  0  0  0  0  0  0
    5.6565    0.2144    0.6574 C   0  0  0  0  0  0  0  0  0  0  0  0
    6.7508    0.9088    0.2102 C   0  0  0  0  0  0  0  0  0  0  0  0
    7.6769    1.5070    1.0350 C   0  0  0  0  0  0  0  0  0  0  0  0
    7.5085    1.4115    2.3944 C   0  0  0  0  0  0  0  0  0  0  0  0
    8.3668    1.9674    3.3238 O   0  0  0  0  0  0  0  0  0  0  0  0
    9.5196    2.7003    3.0148 C   0  0  0  0  0  0  0  0  0  0  0  0
    6.4181    0.7199    2.8722 C   0  0  0  0  0  0  0  0  0  0  0  0
    5.4959    0.1240    2.0327 C   0  0  0  0  0  0  0  0  0  0  0  0
    2.6040   -1.4459   -0.3367 C   0  0  0  0  0  0  0  0  0  0  0  0
    1.2128   -1.4540   -0.2570 C   0  0  0  0  0  0  0  0  0  0  0  0
    0.4874   -2.5972   -0.4519 C   0  0  0  0  0  0  0  0  0  0  0  0
   -0.8828   -2.5643   -0.3649 C   0  0  0  0  0  0  0  0  0  0  0  0
   -1.5482   -1.3828   -0.0806 C   0  0  0  0  0  0  0  0  0  0  0  0
   -2.9005   -1.3065    0.0145 C   0  0  0  0  0  0  0  0  0  0  0  0
   -0.8096   -0.2229    0.1171 C   0  0  0  0  0  0  0  0  0  0  0  0
    0.5673   -0.2837    0.0239 C   0  0  0  0  0  0  0  0  0  0  0  0
   -6.6003    0.5280   -1.3719 C   0  0  0  0  0  0  0  0  0  0  0  0
   -7.2737    1.5311   -2.0255 C   0  0  0  0  0  0  0  0  0  0  0  0
   -8.9522    4.4808   -3.9224 H   0  0  0  0  0  0  0  0  0  0  0  0
   -8.0823    2.9011   -4.1154 H   0  0  0  0  0  0  0  0  0  0  0  0
   -9.5855    2.9799   -3.1459 H   0  0  0  0  0  0  0  0  0  0  0  0
   -6.4256    4.1211   -0.1429 H   0  0  0  0  0  0  0  0  0  0  0  0
   -5.2619    2.3334    1.0809 H   0  0  0  0  0  0  0  0  0  0  0  0
   -6.9068   -2.0465   -0.5577 H   0  0  0  0  0  0  0  0  0  0  0  0
   -7.6320   -3.9971    0.6406 H   0  0  0  0  0  0  0  0  0  0  0  0
   -6.7263   -4.5905    2.8787 H   0  0  0  0  0  0  0  0  0  0  0  0
   -5.0475   -3.1248    3.8736 H   0  0  0  0  0  0  0  0  0  0  0  0
   -4.2728   -1.0741    2.6441 H   0  0  0  0  0  0  0  0  0  0  0  0
   -3.2723    1.9258    0.7000 H   0  0  0  0  0  0  0  0  0  0  0  0
   -1.2224    3.0084    0.8124 H   0  0  0  0  0  0  0  0  0  0  0  0
    1.2737    2.9378    0.6516 H   0  0  0  0  0  0  0  0  0  0  0  0
    3.2276    1.8040    0.3017 H   0  0  0  0  0  0  0  0  0  0  0  0
    3.9468   -0.2089   -2.6952 H   0  0  0  0  0  0  0  0  0  0  0  0
    4.8112   -1.4091   -4.6604 H   0  0  0  0  0  0  0  0  0  0  0  0
    6.6950   -3.0223   -4.4007 H   0  0  0  0  0  0  0  0  0  0  0  0
    7.6361   -3.3637   -2.1671 H   0  0  0  0  0  0  0  0  0  0  0  0
    6.7322   -2.1223   -0.1737 H   0  0  0  0  0  0  0  0  0  0  0  0
    6.9248    1.0101   -0.8740 H   0  0  0  0  0  0  0  0  0  0  0  0
    8.5336    2.0504    0.6634 H   0  0  0  0  0  0  0  0  0  0  0  0
    9.4393    3.2584    2.0472 H   0  0  0  0  0  0  0  0  0  0  0  0
   10.4484    2.1128    3.0131 H   0  0  0  0  0  0  0  0  0  0  0  0
    9.6028    3.5095    3.7980 H   0  0  0  0  0  0  0  0  0  0  0  0
    6.2553    0.6256    3.9576 H   0  0  0  0  0  0  0  0  0  0  0  0
    4.6376   -0.4205    2.3936 H   0  0  0  0  0  0  0  0  0  0  0  0
    3.0549   -2.4145   -0.5642 H   0  0  0  0  0  0  0  0  0  0  0  0
    1.0246   -3.5180   -0.6746 H   0  0  0  0  0  0  0  0  0  0  0  0
   -1.4858   -3.4413   -0.5118 H   0  0  0  0  0  0  0  0  0  0  0  0
   -3.4648   -2.2130   -0.1407 H   0  0  0  0  0  0  0  0  0  0  0  0
   -6.6517   -0.4812   -1.8078 H   0  0  0  0  0  0  0  0  0  0  0  0
   -7.8680    1.2644   -2.9185 H   0  0  0  0  0  0  0  0  0  0  0  0
  1  2  1  0
  2  3  1  0
  3  4  2  0
  4  5  1  0
  5  6  2  0
  6  7  1  0
  7  8  1  0
  8  9  2  0
  9 10  1  0
 10 11  2  0
 11 12  1  0
 12 13  2  0
  7 14  1  0
 14 15  2  0
 15 16  1  0
 16 17  2  0
 17 18  1  0
 18 19  2  0
 19 20  1  0
 20 21  2  0
 21 22  1  0
 22 23  1  0
 23 24  2  0
 24 25  1  0
 25 26  2  0
 26 27  1  0
 27 28  2  0
 22 29  1  0
 29 30  2  0
 30 31  1  0
 31 32  2  0
 32 33  1  0
 33 34  1  0
 32 35  1  0
 35 36  2  0
 21 37  1  0
 37 38  2  0
 38 39  1  0
 39 40  2  0
 40 41  1  0
 41 42  2  0
 41 43  1  0
 43 44  2  0
  6 45  1  0
 45 46  2  0
 46  3  1  0
 13  8  1  0
 42 14  1  0
 43 16  1  0
 44 19  1  0
 28 23  1  0
 36 29  1  0
 44 38  1  0
  1 47  1  0
  1 48  1  0
  1 49  1  0
  4 50  1  0
  5 51  1  0
  9 52  1  0
 10 53  1  0
 11 54  1  0
 12 55  1  0
 13 56  1  0
 15 57  1  0
 17 58  1  0
 18 59  1  0
 20 60  1  0
 24 61  1  0
 25 62  1  0
 26 63  1  0
 27 64  1  0
 28 65  1  0
 30 66  1  0
 31 67  1  0
 34 68  1  0
 34 69  1  0
 34 70  1  0
 35 71  1  0
 36 72  1  0
 37 73  1  0
 39 74  1  0
 40 75  1  0
 42 76  1  0
 45 77  1  0
 46 78  1  0
M  END
