
     RDKit          3D

 41 46  0  0  0  0  0  0  0  0999 V2000
    5.9257    0.4424    3.6931 Cl  0  0  0  0  0  0  0  0  0  0  0  0
    5.8276    0.1768    1.9669 C   0  0  0  0  0  0  0  0  0  0  0  0
    6.9837    0.0439    1.2932 N   0  0  0  0  0  0  0  0  0  0  0  0
    6.9472   -0.1578   -0.0119 C   0  0  0  0  0  0  0  0  0  0  0  0
    8.4118   -0.3418   -0.9658 Cl  0  0  0  0  0  0  0  0  0  0  0  0
    5.7747   -0.2290   -0.6549 N   0  0  0  0  0  0  0  0  0  0  0  0
    4.5663   -0.0996   -0.0117 C   0  0  0  0  0  0  0  0  0  0  0  0
    3.4011   -0.1907   -0.7821 N   0  0  0  0  0  0  0  0  0  0  0  0
    2.0610   -0.0827   -0.2980 C   0  0  0  0  0  0  0  0  0  0  0  0
    1.7717    0.1295    1.0248 C   0  0  0  0  0  0  0  0  0  0  0  0
    0.4549    0.2350    1.4969 C   0  0  0  0  0  0  0  0  0  0  0  0
   -0.5845    0.1228    0.6091 C   0  0  0  0  0  0  0  0  0  0  0  0
   -1.8932    0.2308    1.0991 C   0  0  0  0  0  0  0  0  0  0  0  0
   -2.1414    0.4440    2.4343 C   0  0  0  0  0  0  0  0  0  0  0  0
   -3.4592    0.5431    2.8653 C   0  0  0  0  0  0  0  0  0  0  0  0
   -4.5187    0.4364    2.0102 C   0  0  0  0  0  0  0  0  0  0  0  0
   -4.2613    0.2211    0.6626 C   0  0  0  0  0  0  0  0  0  0  0  0
   -5.3027    0.1090   -0.2249 C   0  0  0  0  0  0  0  0  0  0  0  0
   -5.1009   -0.1031   -1.5605 C   0  0  0  0  0  0  0  0  0  0  0  0
   -3.7981   -0.2121   -2.0574 C   0  0  0  0  0  0  0  0  0  0  0  0
   -2.7478   -0.1004   -1.1717 C   0  0  0  0  0  0  0  0  0  0  0  0
   -1.4275   -0.1989   -1.5982 C   0  0  0  0  0  0  0  0  0  0  0  0
   -1.1819   -0.4122   -2.9341 C   0  0  0  0  0  0  0  0  0  0  0  0
    0.1172   -0.5123   -3.3749 C   0  0  0  0  0  0  0  0  0  0  0  0
    1.1825   -0.4025   -2.4981 C   0  0  0  0  0  0  0  0  0  0  0  0
    0.9757   -0.1906   -1.1648 C   0  0  0  0  0  0  0  0  0  0  0  0
   -0.3509   -0.0925   -0.7422 C   0  0  0  0  0  0  0  0  0  0  0  0
   -2.9531    0.1153    0.1871 C   0  0  0  0  0  0  0  0  0  0  0  0
    4.6779    0.1019    1.3030 N   0  0  0  0  0  0  0  0  0  0  0  0
    3.5689   -0.3563   -1.8226 H   0  0  0  0  0  0  0  0  0  0  0  0
    2.5621    0.2235    1.7553 H   0  0  0  0  0  0  0  0  0  0  0  0
    0.3580    0.4004    2.5475 H   0  0  0  0  0  0  0  0  0  0  0  0
   -1.3296    0.5311    3.1240 H   0  0  0  0  0  0  0  0  0  0  0  0
   -3.6529    0.7129    3.9293 H   0  0  0  0  0  0  0  0  0  0  0  0
   -5.5502    0.5093    2.3172 H   0  0  0  0  0  0  0  0  0  0  0  0
   -6.3168    0.1969    0.1815 H   0  0  0  0  0  0  0  0  0  0  0  0
   -5.9345   -0.1881   -2.2400 H   0  0  0  0  0  0  0  0  0  0  0  0
   -3.6531   -0.3792   -3.1119 H   0  0  0  0  0  0  0  0  0  0  0  0
   -1.9497   -0.5055   -3.6572 H   0  0  0  0  0  0  0  0  0  0  0  0
    0.3562   -0.6827   -4.4353 H   0  0  0  0  0  0  0  0  0  0  0  0
    2.1839   -0.4883   -2.8937 H   0  0  0  0  0  0  0  0  0  0  0  0
  1  2  1  0
  2  3  2  0
  3  4  1  0
  4  5  1  0
  4  6  2  0
  6  7  1  0
  7  8  1  0
  8  9  1  0
  9 10  2  0
 10 11  1  0
 11 12  2  0
 12 13  1  0
 13 14  2  0
 14 15  1  0
 15 16  2  0
 16 17  1  0
 17 18  2  0
 18 19  1  0
 19 20  2  0
 20 21  1  0
 21 22  1  0
 22 23  1  0
 23 24  2  0
 24 25  1  0
 25 26  2  0
 26 27  1  0
 21 28  2  0
  7 29  2  0
 29  2  1  0
 26  9  1  0
 27 12  1  0
 28 13  1  0
 28 17  1  0
 27 22  2  0
  8 30  1  0
 10 31  1  0
 11 32  1  0
 14 33  1  0
 15 34  1  0
 16 35  1  0
 18 36  1  0
 19 37  1  0
 20 38  1  0
 23 39  1  0
 24 40  1  0
 25 41  1  0
M  END
