
     RDKit          3D

 41 44  0  0  0  0  0  0  0  0999 V2000
    6.1017    0.7058   -0.3199 C   0  0  0  0  0  0  0  0  0  0  0  0
    4.6275    0.7900   -0.1581 C   0  0  0  0  0  0  0  0  0  0  0  0
    3.9231    1.8376   -0.7084 C   0  0  0  0  0  0  0  0  0  0  0  0
    2.5514    1.8761   -0.5333 C   0  0  0  0  0  0  0  0  0  0  0  0
    1.8705    0.9069    0.1695 C   0  0  0  0  0  0  0  0  0  0  0  0
    0.4658    1.0464    0.3804 C   0  0  0  0  0  0  0  0  0  0  0  0
   -0.4256    0.1432    0.0900 C   0  0  0  0  0  0  0  0  0  0  0  0
   -0.0835   -1.1321   -0.5103 C   0  0  0  0  0  0  0  0  0  0  0  0
    0.9788   -1.3723   -1.3314 C   0  0  0  0  0  0  0  0  0  0  0  0
    1.2637   -2.6596   -1.7396 C   0  0  0  0  0  0  0  0  0  0  0  0
    0.5011   -3.7389   -1.3460 C   0  0  0  0  0  0  0  0  0  0  0  0
   -0.5841   -3.4878   -0.5094 C   0  0  0  0  0  0  0  0  0  0  0  0
   -0.8834   -2.2181   -0.0911 C   0  0  0  0  0  0  0  0  0  0  0  0
   -1.8518    0.4869    0.3690 C   0  0  0  0  0  0  0  0  0  0  0  0
   -2.8920   -0.2834    0.0867 N   0  0  0  0  0  0  0  0  0  0  0  0
   -4.0407    0.3286    0.4714 C   0  0  0  0  0  0  0  0  0  0  0  0
   -5.3848    0.0026    0.4255 C   0  0  0  0  0  0  0  0  0  0  0  0
   -6.3155    0.8812    0.9193 C   0  0  0  0  0  0  0  0  0  0  0  0
   -5.9159    2.0722    1.4538 C   0  0  0  0  0  0  0  0  0  0  0  0
   -4.5820    2.3887    1.4959 C   0  0  0  0  0  0  0  0  0  0  0  0
   -3.6231    1.5315    1.0100 C   0  0  0  0  0  0  0  0  0  0  0  0
   -2.3048    1.5715    0.9220 O   0  0  0  0  0  0  0  0  0  0  0  0
    2.5811   -0.1393    0.7183 C   0  0  0  0  0  0  0  0  0  0  0  0
    3.9579   -0.1900    0.5499 C   0  0  0  0  0  0  0  0  0  0  0  0
    6.2991    0.4481   -1.3812 H   0  0  0  0  0  0  0  0  0  0  0  0
    6.5943    1.6760   -0.1123 H   0  0  0  0  0  0  0  0  0  0  0  0
    6.4982   -0.1275    0.2965 H   0  0  0  0  0  0  0  0  0  0  0  0
    4.4724    2.5898   -1.2568 H   0  0  0  0  0  0  0  0  0  0  0  0
    2.0454    2.7265   -0.9897 H   0  0  0  0  0  0  0  0  0  0  0  0
    0.1157    2.0257    0.8368 H   0  0  0  0  0  0  0  0  0  0  0  0
    1.5560   -0.5311   -1.7023 H   0  0  0  0  0  0  0  0  0  0  0  0
    2.1051   -2.8539   -2.3879 H   0  0  0  0  0  0  0  0  0  0  0  0
    0.6750   -4.7478   -1.6298 H   0  0  0  0  0  0  0  0  0  0  0  0
   -1.2082   -4.3309   -0.1825 H   0  0  0  0  0  0  0  0  0  0  0  0
   -1.7248   -2.1090    0.5674 H   0  0  0  0  0  0  0  0  0  0  0  0
   -5.6780   -0.9483   -0.0035 H   0  0  0  0  0  0  0  0  0  0  0  0
   -7.3695    0.6586    0.8988 H   0  0  0  0  0  0  0  0  0  0  0  0
   -6.6739    2.7653    1.8452 H   0  0  0  0  0  0  0  0  0  0  0  0
   -4.2871    3.3440    1.9267 H   0  0  0  0  0  0  0  0  0  0  0  0
    2.1158   -0.9210    1.2767 H   0  0  0  0  0  0  0  0  0  0  0  0
    4.5289   -1.0122    0.9796 H   0  0  0  0  0  0  0  0  0  0  0  0
  1  2  1  0
  2  3  2  0
  3  4  1  0
  4  5  2  0
  5  6  1  0
  6  7  2  0
  7  8  1  0
  8  9  2  0
  9 10  1  0
 10 11  2  0
 11 12  1  0
 12 13  2  0
  7 14  1  0
 14 15  2  0
 15 16  1  0
 16 17  2  0
 17 18  1  0
 18 19  2  0
 19 20  1  0
 20 21  2  0
 21 22  1  0
  5 23  1  0
 23 24  2  0
 24  2  1  0
 13  8  1  0
 22 14  1  0
 21 16  1  0
  1 25  1  0
  1 26  1  0
  1 27  1  0
  3 28  1  0
  4 29  1  0
  6 30  1  0
  9 31  1  0
 10 32  1  0
 11 33  1  0
 12 34  1  0
 13 35  1  0
 17 36  1  0
 18 37  1  0
 19 38  1  0
 20 39  1  0
 23 40  1  0
 24 41  1  0
M  END
