
     RDKit          3D

 51 56  0  0  0  0  0  0  0  0999 V2000
   -2.7870   -2.0987    0.4096 C   0  0  0  0  0  0  0  0  0  0  0  0
   -2.4869   -0.6539    0.7836 C   0  0  0  0  0  0  0  0  0  0  0  0
   -2.3367   -0.4506    2.2739 C   0  0  0  0  0  0  0  0  0  0  0  0
   -3.5957    0.1540    0.2275 C   0  0  0  0  0  0  0  0  0  0  0  0
   -4.9069    0.3261    0.6459 C   0  0  0  0  0  0  0  0  0  0  0  0
   -5.7071    1.1491   -0.0899 C   0  0  0  0  0  0  0  0  0  0  0  0
   -7.0531    1.4102    0.3703 C   0  0  0  0  0  0  0  0  0  0  0  0
   -8.1696    1.6093    0.7557 N   0  0  0  0  0  0  0  0  0  0  0  0
   -5.2402    1.8093   -1.2452 C   0  0  0  0  0  0  0  0  0  0  0  0
   -3.9301    1.6315   -1.6579 C   0  0  0  0  0  0  0  0  0  0  0  0
   -3.1400    0.7997   -0.8940 C   0  0  0  0  0  0  0  0  0  0  0  0
   -1.6955    0.5605   -1.0082 C   0  0  0  0  0  0  0  0  0  0  0  0
   -0.7455    1.0899   -1.8847 C   0  0  0  0  0  0  0  0  0  0  0  0
    0.5926    0.8532   -1.7085 C   0  0  0  0  0  0  0  0  0  0  0  0
    1.0024    0.0862   -0.6635 C   0  0  0  0  0  0  0  0  0  0  0  0
    2.3716   -0.0981   -0.3273 N   0  0  0  0  0  0  0  0  0  0  0  0
    2.9931   -1.3623   -0.4590 C   0  0  0  0  0  0  0  0  0  0  0  0
    2.3060   -2.4735   -0.9742 C   0  0  0  0  0  0  0  0  0  0  0  0
    2.9301   -3.6949   -1.0935 C   0  0  0  0  0  0  0  0  0  0  0  0
    4.2492   -3.8513   -0.7049 C   0  0  0  0  0  0  0  0  0  0  0  0
    4.9163   -2.7266   -0.1944 C   0  0  0  0  0  0  0  0  0  0  0  0
    4.2999   -1.5104   -0.0747 C   0  0  0  0  0  0  0  0  0  0  0  0
    5.0275   -0.4015    0.4510 O   0  0  0  0  0  0  0  0  0  0  0  0
    4.3892    0.8379    0.5685 C   0  0  0  0  0  0  0  0  0  0  0  0
    5.0693    1.9203    1.0720 C   0  0  0  0  0  0  0  0  0  0  0  0
    4.4881    3.1733    1.2157 C   0  0  0  0  0  0  0  0  0  0  0  0
    3.1523    3.3438    0.8313 C   0  0  0  0  0  0  0  0  0  0  0  0
    2.4811    2.2975    0.3388 C   0  0  0  0  0  0  0  0  0  0  0  0
    3.0560    1.0361    0.1895 C   0  0  0  0  0  0  0  0  0  0  0  0
    0.0702   -0.4342    0.1816 C   0  0  0  0  0  0  0  0  0  0  0  0
   -1.2989   -0.2218    0.0445 C   0  0  0  0  0  0  0  0  0  0  0  0
   -1.8710   -2.7346    0.3673 H   0  0  0  0  0  0  0  0  0  0  0  0
   -3.4025   -2.5080    1.2515 H   0  0  0  0  0  0  0  0  0  0  0  0
   -3.4015   -2.1715   -0.5101 H   0  0  0  0  0  0  0  0  0  0  0  0
   -1.8898    0.5816    2.3935 H   0  0  0  0  0  0  0  0  0  0  0  0
   -1.6436   -1.1661    2.7304 H   0  0  0  0  0  0  0  0  0  0  0  0
   -3.3363   -0.3900    2.7643 H   0  0  0  0  0  0  0  0  0  0  0  0
   -5.2468   -0.2006    1.5260 H   0  0  0  0  0  0  0  0  0  0  0  0
   -5.9633    2.4489   -1.7281 H   0  0  0  0  0  0  0  0  0  0  0  0
   -3.5860    2.1456   -2.5346 H   0  0  0  0  0  0  0  0  0  0  0  0
   -1.0865    1.6971   -2.7180 H   0  0  0  0  0  0  0  0  0  0  0  0
    1.3108    1.2962   -2.4329 H   0  0  0  0  0  0  0  0  0  0  0  0
    1.2861   -2.3468   -1.2786 H   0  0  0  0  0  0  0  0  0  0  0  0
    2.3493   -4.5196   -1.4936 H   0  0  0  0  0  0  0  0  0  0  0  0
    4.7375   -4.8034   -0.7981 H   0  0  0  0  0  0  0  0  0  0  0  0
    5.9412   -2.8727    0.0907 H   0  0  0  0  0  0  0  0  0  0  0  0
    6.0977    1.8197    1.3786 H   0  0  0  0  0  0  0  0  0  0  0  0
    5.0070    4.0202    1.6099 H   0  0  0  0  0  0  0  0  0  0  0  0
    2.6699    4.3099    0.9362 H   0  0  0  0  0  0  0  0  0  0  0  0
    1.4177    2.3489    0.0228 H   0  0  0  0  0  0  0  0  0  0  0  0
    0.3079   -1.0650    1.0435 H   0  0  0  0  0  0  0  0  0  0  0  0
  1  2  1  0
  2  3  1  0
  2  4  1  0
  4  5  2  0
  5  6  1  0
  6  7  1  0
  7  8  3  0
  6  9  2  0
  9 10  1  0
 10 11  2  0
 11 12  1  0
 12 13  2  0
 13 14  1  0
 14 15  2  0
 15 16  1  0
 16 17  1  0
 17 18  2  0
 18 19  1  0
 19 20  2  0
 20 21  1  0
 21 22  2  0
 22 23  1  0
 23 24  1  0
 24 25  2  0
 25 26  1  0
 26 27  2  0
 27 28  1  0
 28 29  2  0
 15 30  1  0
 30 31  2  0
 31  2  1  0
 11  4  1  0
 31 12  1  0
 29 16  1  0
 22 17  1  0
 29 24  1  0
  1 32  1  0
  1 33  1  0
  1 34  1  0
  3 35  1  0
  3 36  1  0
  3 37  1  0
  5 38  1  0
  9 39  1  0
 10 40  1  0
 13 41  1  0
 14 42  1  0
 18 43  1  0
 19 44  1  0
 20 45  1  0
 21 46  1  0
 25 47  1  0
 26 48  1  0
 27 49  1  0
 28 50  1  0
 30 51  1  0
M  END
