
     RDKit          3D

 50 51  0  0  0  0  0  0  0  0999 V2000
    5.3703    2.3296    2.0245 C   0  0  0  0  0  0  0  0  0  0  0  0
    5.0997    1.3952    0.8734 C   0  0  0  0  0  0  0  0  0  0  0  0
    6.1062    1.0185    0.2634 O   0  0  0  0  0  0  0  0  0  0  0  0
    3.7716    1.0372    0.5925 N   0  0  0  0  0  0  0  0  0  0  0  0
    3.4065    0.1694   -0.4718 C   0  0  0  0  0  0  0  0  0  0  0  0
    4.3328   -0.2217   -1.4230 C   0  0  0  0  0  0  0  0  0  0  0  0
    4.0386   -1.0395   -2.5162 C   0  0  0  0  0  0  0  0  0  0  0  0
    2.7456   -1.4773   -2.6462 C   0  0  0  0  0  0  0  0  0  0  0  0
    1.8004   -1.1124   -1.7263 C   0  0  0  0  0  0  0  0  0  0  0  0
    2.1162   -0.2865   -0.6285 C   0  0  0  0  0  0  0  0  0  0  0  0
    1.0600    0.0308    0.3118 C   0  0  0  0  0  0  0  0  0  0  0  0
    1.1648    0.7133    1.3330 O   0  0  0  0  0  0  0  0  0  0  0  0
   -0.2529   -0.4669    0.0876 O   0  0  0  0  0  0  0  0  0  0  0  0
   -1.2747   -0.1552    1.0045 C   0  0  0  0  0  0  0  0  0  0  0  0
   -1.7316   -1.4723    1.6192 C   0  0  0  0  0  0  0  0  0  0  0  0
   -2.3923   -2.3752    0.6361 C   0  0  0  0  0  0  0  0  0  0  0  0
   -3.2490   -3.3654    1.4382 C   0  0  0  0  0  0  0  0  0  0  0  0
   -3.3005   -1.7134   -0.3348 C   0  0  0  0  0  0  0  0  0  0  0  0
   -2.7716   -0.4079   -0.8756 C   0  0  0  0  0  0  0  0  0  0  0  0
   -2.4679    0.4482    0.3279 C   0  0  0  0  0  0  0  0  0  0  0  0
   -2.2922    1.9016   -0.0122 C   0  0  0  0  0  0  0  0  0  0  0  0
   -1.1433    2.1629   -0.9363 C   0  0  0  0  0  0  0  0  0  0  0  0
   -3.5931    2.3804   -0.6379 C   0  0  0  0  0  0  0  0  0  0  0  0
    5.2878    3.3806    1.7300 H   0  0  0  0  0  0  0  0  0  0  0  0
    4.6284    2.0396    2.8199 H   0  0  0  0  0  0  0  0  0  0  0  0
    6.3738    2.1503    2.4603 H   0  0  0  0  0  0  0  0  0  0  0  0
    3.0461    1.4759    1.2265 H   0  0  0  0  0  0  0  0  0  0  0  0
    5.3560    0.0869   -1.3943 H   0  0  0  0  0  0  0  0  0  0  0  0
    4.7875   -1.3256   -3.2402 H   0  0  0  0  0  0  0  0  0  0  0  0
    2.4793   -2.1178   -3.4888 H   0  0  0  0  0  0  0  0  0  0  0  0
    0.7552   -1.4533   -1.8124 H   0  0  0  0  0  0  0  0  0  0  0  0
   -0.9231    0.4754    1.8409 H   0  0  0  0  0  0  0  0  0  0  0  0
   -0.7994   -1.9672    1.9846 H   0  0  0  0  0  0  0  0  0  0  0  0
   -2.3653   -1.3041    2.5197 H   0  0  0  0  0  0  0  0  0  0  0  0
   -1.6739   -3.0206    0.0694 H   0  0  0  0  0  0  0  0  0  0  0  0
   -4.2683   -2.9080    1.5889 H   0  0  0  0  0  0  0  0  0  0  0  0
   -2.8005   -3.5728    2.4131 H   0  0  0  0  0  0  0  0  0  0  0  0
   -3.4121   -4.2990    0.8961 H   0  0  0  0  0  0  0  0  0  0  0  0
   -4.2585   -1.4554    0.2052 H   0  0  0  0  0  0  0  0  0  0  0  0
   -3.5574   -2.4324   -1.1318 H   0  0  0  0  0  0  0  0  0  0  0  0
   -3.5266    0.0258   -1.5473 H   0  0  0  0  0  0  0  0  0  0  0  0
   -1.7877   -0.5765   -1.4013 H   0  0  0  0  0  0  0  0  0  0  0  0
   -3.3425    0.3768    1.0112 H   0  0  0  0  0  0  0  0  0  0  0  0
   -2.1740    2.4555    0.9293 H   0  0  0  0  0  0  0  0  0  0  0  0
   -0.2869    2.5276   -0.3230 H   0  0  0  0  0  0  0  0  0  0  0  0
   -0.8947    1.3392   -1.6059 H   0  0  0  0  0  0  0  0  0  0  0  0
   -1.4393    3.0444   -1.5770 H   0  0  0  0  0  0  0  0  0  0  0  0
   -4.4080    1.6374   -0.4985 H   0  0  0  0  0  0  0  0  0  0  0  0
   -3.4630    2.5469   -1.7453 H   0  0  0  0  0  0  0  0  0  0  0  0
   -3.8765    3.3773   -0.2323 H   0  0  0  0  0  0  0  0  0  0  0  0
  1  2  1  0
  2  3  2  0
  2  4  1  0
  4  5  1  0
  5  6  2  0
  6  7  1  0
  7  8  2  0
  8  9  1  0
  9 10  2  0
 10 11  1  0
 11 12  2  0
 11 13  1  0
 13 14  1  0
 14 15  1  0
 15 16  1  0
 16 17  1  0
 16 18  1  0
 18 19  1  0
 19 20  1  0
 20 21  1  0
 21 22  1  0
 21 23  1  0
 10  5  1  0
 20 14  1  0
  1 24  1  0
  1 25  1  0
  1 26  1  0
  4 27  1  0
  6 28  1  0
  7 29  1  0
  8 30  1  0
  9 31  1  0
 14 32  1  0
 15 33  1  0
 15 34  1  0
 16 35  1  0
 17 36  1  0
 17 37  1  0
 17 38  1  0
 18 39  1  0
 18 40  1  0
 19 41  1  0
 19 42  1  0
 20 43  1  0
 21 44  1  0
 22 45  1  0
 22 46  1  0
 22 47  1  0
 23 48  1  0
 23 49  1  0
 23 50  1  0
M  END
