
     RDKit          3D

 43 46  0  0  0  0  0  0  0  0999 V2000
    3.1976   -2.5210    2.3987 N   0  0  0  0  0  0  0  0  0  0  0  0
    2.7847   -1.6224    1.8171 C   0  0  0  0  0  0  0  0  0  0  0  0
    2.2866   -0.4985    1.0782 C   0  0  0  0  0  0  0  0  0  0  0  0
    3.0652    0.5136    0.8370 C   0  0  0  0  0  0  0  0  0  0  0  0
    4.4541    0.6274    1.2621 C   0  0  0  0  0  0  0  0  0  0  0  0
    4.9270    0.2774    2.4991 C   0  0  0  0  0  0  0  0  0  0  0  0
    6.2932    0.4285    2.7532 C   0  0  0  0  0  0  0  0  0  0  0  0
    7.1655    0.9157    1.7994 C   0  0  0  0  0  0  0  0  0  0  0  0
    8.8754    1.1180    2.0768 Cl  0  0  0  0  0  0  0  0  0  0  0  0
    6.6625    1.2609    0.5609 C   0  0  0  0  0  0  0  0  0  0  0  0
    5.3369    1.1188    0.3018 C   0  0  0  0  0  0  0  0  0  0  0  0
    0.8781   -0.5604    0.6287 C   0  0  0  0  0  0  0  0  0  0  0  0
    0.1577    0.3083   -0.0256 N   0  0  0  0  0  0  0  0  0  0  0  0
   -1.0844    0.0547   -0.3409 C   0  0  0  0  0  0  0  0  0  0  0  0
   -1.9051    1.0426   -1.0980 C   0  0  0  0  0  0  0  0  0  0  0  0
   -2.3823    0.7610   -2.3556 C   0  0  0  0  0  0  0  0  0  0  0  0
   -3.1502    1.6830   -3.0706 C   0  0  0  0  0  0  0  0  0  0  0  0
   -3.4391    2.9080   -2.5031 C   0  0  0  0  0  0  0  0  0  0  0  0
   -2.9722    3.2075   -1.2491 C   0  0  0  0  0  0  0  0  0  0  0  0
   -2.2179    2.2726   -0.5750 C   0  0  0  0  0  0  0  0  0  0  0  0
   -1.5858   -1.1656    0.0533 C   0  0  0  0  0  0  0  0  0  0  0  0
   -2.9058   -1.7352   -0.1273 C   0  0  0  0  0  0  0  0  0  0  0  0
   -4.0210   -1.1614    0.4301 C   0  0  0  0  0  0  0  0  0  0  0  0
   -5.2872   -1.6981    0.2732 C   0  0  0  0  0  0  0  0  0  0  0  0
   -5.4205   -2.8476   -0.4700 C   0  0  0  0  0  0  0  0  0  0  0  0
   -4.3210   -3.4518   -1.0452 C   0  0  0  0  0  0  0  0  0  0  0  0
   -3.0603   -2.8818   -0.8655 C   0  0  0  0  0  0  0  0  0  0  0  0
   -0.2339   -1.8515    0.8425 S   0  0  0  0  0  0  0  0  0  0  0  0
    2.6232    1.3429    0.2630 H   0  0  0  0  0  0  0  0  0  0  0  0
    4.2414   -0.0947    3.2345 H   0  0  0  0  0  0  0  0  0  0  0  0
    6.6706    0.1551    3.7258 H   0  0  0  0  0  0  0  0  0  0  0  0
    7.3158    1.6415   -0.2042 H   0  0  0  0  0  0  0  0  0  0  0  0
    4.9776    1.4056   -0.6989 H   0  0  0  0  0  0  0  0  0  0  0  0
   -2.1803   -0.1757   -2.8281 H   0  0  0  0  0  0  0  0  0  0  0  0
   -3.5252    1.4600   -4.0618 H   0  0  0  0  0  0  0  0  0  0  0  0
   -4.0323    3.6127   -3.0634 H   0  0  0  0  0  0  0  0  0  0  0  0
   -3.2033    4.1787   -0.8026 H   0  0  0  0  0  0  0  0  0  0  0  0
   -1.8603    2.5251    0.4069 H   0  0  0  0  0  0  0  0  0  0  0  0
   -3.9410   -0.2605    1.0166 H   0  0  0  0  0  0  0  0  0  0  0  0
   -6.1237   -1.2160    0.7260 H   0  0  0  0  0  0  0  0  0  0  0  0
   -6.3680   -3.3180   -0.6326 H   0  0  0  0  0  0  0  0  0  0  0  0
   -4.4459   -4.3587   -1.6282 H   0  0  0  0  0  0  0  0  0  0  0  0
   -2.2462   -3.4007   -1.3391 H   0  0  0  0  0  0  0  0  0  0  0  0
  1  2  3  0
  2  3  1  0
  3  4  2  0
  4  5  1  0
  5  6  2  0
  6  7  1  0
  7  8  2  0
  8  9  1  0
  8 10  1  0
 10 11  2  0
  3 12  1  0
 12 13  2  0
 13 14  1  0
 14 15  1  0
 15 16  2  0
 16 17  1  0
 17 18  2  0
 18 19  1  0
 19 20  2  0
 14 21  2  0
 21 22  1  0
 22 23  2  0
 23 24  1  0
 24 25  2  0
 25 26  1  0
 26 27  2  0
 21 28  1  0
 11  5  1  0
 28 12  1  0
 20 15  1  0
 27 22  1  0
  4 29  1  0
  6 30  1  0
  7 31  1  0
 10 32  1  0
 11 33  1  0
 16 34  1  0
 17 35  1  0
 18 36  1  0
 19 37  1  0
 20 38  1  0
 23 39  1  0
 24 40  1  0
 25 41  1  0
 26 42  1  0
 27 43  1  0
M  END
