
     RDKit          3D

 36 38  0  0  0  0  0  0  0  0999 V2000
   -5.4651    0.5286   -0.7358 C   0  0  0  0  0  0  0  0  0  0  0  0
   -4.4005    0.8254    0.2087 N   0  0  0  0  0  0  0  0  0  0  0  0
   -4.6105    1.7946    1.2756 C   0  0  0  0  0  0  0  0  0  0  0  0
   -3.1636    0.1339    0.0504 C   0  0  0  0  0  0  0  0  0  0  0  0
   -2.1947    0.6113   -0.8210 C   0  0  0  0  0  0  0  0  0  0  0  0
   -0.9860   -0.0506   -0.9872 C   0  0  0  0  0  0  0  0  0  0  0  0
   -0.7477   -1.1927   -0.2771 C   0  0  0  0  0  0  0  0  0  0  0  0
    0.4930   -1.9035   -0.3986 C   0  0  0  0  0  0  0  0  0  0  0  0
    1.6962   -1.3624   -0.2474 C   0  0  0  0  0  0  0  0  0  0  0  0
    2.9078   -2.0768   -0.3763 O   0  0  0  0  0  0  0  0  0  0  0  0
    3.9901   -1.2403   -0.1595 C   0  0  0  0  0  0  0  0  0  0  0  0
    5.3676   -1.4703   -0.1763 C   0  0  0  0  0  0  0  0  0  0  0  0
    6.2743   -0.4706    0.0716 C   0  0  0  0  0  0  0  0  0  0  0  0
    5.8466    0.8089    0.3485 C   0  0  0  0  0  0  0  0  0  0  0  0
    4.4773    1.0730    0.3730 C   0  0  0  0  0  0  0  0  0  0  0  0
    3.9969    2.3371    0.6447 O   0  0  0  0  0  0  0  0  0  0  0  0
    3.5757    0.0402    0.1179 C   0  0  0  0  0  0  0  0  0  0  0  0
    2.0954   -0.0088    0.0689 C   0  0  0  0  0  0  0  0  0  0  0  0
    1.3510    0.9657    0.2726 O   0  0  0  0  0  0  0  0  0  0  0  0
   -1.7089   -1.6786    0.5965 C   0  0  0  0  0  0  0  0  0  0  0  0
   -2.9303   -1.0100    0.7632 C   0  0  0  0  0  0  0  0  0  0  0  0
   -4.9969    0.5011   -1.7579 H   0  0  0  0  0  0  0  0  0  0  0  0
   -5.8621   -0.4772   -0.5547 H   0  0  0  0  0  0  0  0  0  0  0  0
   -6.2262    1.3203   -0.7126 H   0  0  0  0  0  0  0  0  0  0  0  0
   -4.9788    1.2915    2.2063 H   0  0  0  0  0  0  0  0  0  0  0  0
   -5.3335    2.5733    0.9249 H   0  0  0  0  0  0  0  0  0  0  0  0
   -3.6524    2.3084    1.5045 H   0  0  0  0  0  0  0  0  0  0  0  0
   -2.4126    1.5150   -1.3666 H   0  0  0  0  0  0  0  0  0  0  0  0
   -0.2466    0.3036   -1.6813 H   0  0  0  0  0  0  0  0  0  0  0  0
    0.4329   -2.9826   -0.6371 H   0  0  0  0  0  0  0  0  0  0  0  0
    5.7021   -2.4760   -0.3946 H   0  0  0  0  0  0  0  0  0  0  0  0
    7.3623   -0.6671    0.0546 H   0  0  0  0  0  0  0  0  0  0  0  0
    6.5318    1.6285    0.5509 H   0  0  0  0  0  0  0  0  0  0  0  0
    3.0110    2.5113    0.6587 H   0  0  0  0  0  0  0  0  0  0  0  0
   -1.5499   -2.5749    1.1697 H   0  0  0  0  0  0  0  0  0  0  0  0
   -3.6458   -1.4292    1.4557 H   0  0  0  0  0  0  0  0  0  0  0  0
  1  2  1  0
  2  3  1  0
  2  4  1  0
  4  5  2  0
  5  6  1  0
  6  7  2  0
  7  8  1  0
  8  9  2  3
  9 10  1  0
 10 11  1  0
 11 12  2  0
 12 13  1  0
 13 14  2  0
 14 15  1  0
 15 16  1  0
 15 17  2  0
 17 18  1  0
 18 19  2  0
  7 20  1  0
 20 21  2  0
 21  4  1  0
 18  9  1  0
 17 11  1  0
  1 22  1  0
  1 23  1  0
  1 24  1  0
  3 25  1  0
  3 26  1  0
  3 27  1  0
  5 28  1  0
  6 29  1  0
  8 30  1  0
 12 31  1  0
 13 32  1  0
 14 33  1  0
 16 34  1  0
 20 35  1  0
 21 36  1  0
M  END
