
     RDKit          3D

 48 51  0  0  0  0  0  0  0  0999 V2000
   -6.3894    1.5638   -2.1012 C   0  0  0  0  0  0  0  0  0  0  0  0
   -5.8745    1.6956   -0.6757 C   0  0  0  0  0  0  0  0  0  0  0  0
   -5.2618    0.4581   -0.2464 N   0  0  0  0  0  0  0  0  0  0  0  0
   -6.0410   -0.7234   -0.0380 C   0  0  0  0  0  0  0  0  0  0  0  0
   -6.9561   -0.5728    1.1757 C   0  0  0  0  0  0  0  0  0  0  0  0
   -3.8592    0.4107   -0.0046 C   0  0  0  0  0  0  0  0  0  0  0  0
   -3.3595    0.5119    1.2601 C   0  0  0  0  0  0  0  0  0  0  0  0
   -2.0163    0.4891    1.5687 C   0  0  0  0  0  0  0  0  0  0  0  0
   -1.1225    0.3504    0.4842 C   0  0  0  0  0  0  0  0  0  0  0  0
    0.2208    0.3270    0.7635 C   0  0  0  0  0  0  0  0  0  0  0  0
    1.0820    0.1932   -0.3146 C   0  0  0  0  0  0  0  0  0  0  0  0
    2.4921    0.2170   -0.0273 C   0  0  0  0  0  0  0  0  0  0  0  0
    3.3164   -0.7065   -0.4629 C   0  0  0  0  0  0  0  0  0  0  0  0
    2.9123   -1.8345   -1.2620 C   0  0  0  0  0  0  0  0  0  0  0  0
    2.6085   -2.7214   -1.8961 N   0  0  0  0  0  0  0  0  0  0  0  0
    4.7424   -0.5502   -0.0888 C   0  0  0  0  0  0  0  0  0  0  0  0
    5.7628   -1.3320   -0.4068 N   0  0  0  0  0  0  0  0  0  0  0  0
    6.9582   -1.0378    0.0186 C   0  0  0  0  0  0  0  0  0  0  0  0
    8.1316   -1.7811   -0.2430 C   0  0  0  0  0  0  0  0  0  0  0  0
    9.3322   -1.3632    0.2671 C   0  0  0  0  0  0  0  0  0  0  0  0
    9.4881   -0.2385    1.0390 C   0  0  0  0  0  0  0  0  0  0  0  0
    8.3457    0.4869    1.2936 C   0  0  0  0  0  0  0  0  0  0  0  0
    7.1025    0.0826    0.7846 C   0  0  0  0  0  0  0  0  0  0  0  0
    5.4898    0.6596    0.8522 S   0  0  0  0  0  0  0  0  0  0  0  0
    0.5282    0.0941   -1.5837 C   0  0  0  0  0  0  0  0  0  0  0  0
    1.3028   -0.0241   -2.5749 O   0  0  0  0  0  0  0  0  0  0  0  0
   -0.7636    0.1224   -1.7844 O   0  0  0  0  0  0  0  0  0  0  0  0
   -1.5922    0.2474   -0.7892 C   0  0  0  0  0  0  0  0  0  0  0  0
   -2.9652    0.2748   -1.0602 C   0  0  0  0  0  0  0  0  0  0  0  0
   -6.7290    0.5296   -2.3064 H   0  0  0  0  0  0  0  0  0  0  0  0
   -7.3013    2.1997   -2.2354 H   0  0  0  0  0  0  0  0  0  0  0  0
   -5.6291    1.8696   -2.8370 H   0  0  0  0  0  0  0  0  0  0  0  0
   -5.1707    2.5450   -0.6458 H   0  0  0  0  0  0  0  0  0  0  0  0
   -6.7375    1.9761   -0.0545 H   0  0  0  0  0  0  0  0  0  0  0  0
   -5.4009   -1.6061    0.1474 H   0  0  0  0  0  0  0  0  0  0  0  0
   -6.7028   -0.9519   -0.9145 H   0  0  0  0  0  0  0  0  0  0  0  0
   -7.8872   -1.1430    1.0895 H   0  0  0  0  0  0  0  0  0  0  0  0
   -6.3954   -0.9603    2.0608 H   0  0  0  0  0  0  0  0  0  0  0  0
   -7.1264    0.5121    1.3443 H   0  0  0  0  0  0  0  0  0  0  0  0
   -4.0728    0.6175    2.0687 H   0  0  0  0  0  0  0  0  0  0  0  0
   -1.6190    0.5709    2.5596 H   0  0  0  0  0  0  0  0  0  0  0  0
    0.5448    0.4076    1.7792 H   0  0  0  0  0  0  0  0  0  0  0  0
    2.8447    1.0604    0.5885 H   0  0  0  0  0  0  0  0  0  0  0  0
    8.0850   -2.6877   -0.8493 H   0  0  0  0  0  0  0  0  0  0  0  0
   10.2344   -1.9308    0.0697 H   0  0  0  0  0  0  0  0  0  0  0  0
   10.4123    0.1091    1.4492 H   0  0  0  0  0  0  0  0  0  0  0  0
    8.3440    1.3893    1.8854 H   0  0  0  0  0  0  0  0  0  0  0  0
   -3.3082    0.1938   -2.0781 H   0  0  0  0  0  0  0  0  0  0  0  0
  1  2  1  0
  2  3  1  0
  3  4  1  0
  4  5  1  0
  3  6  1  0
  6  7  2  0
  7  8  1  0
  8  9  2  0
  9 10  1  0
 10 11  2  0
 11 12  1  0
 12 13  2  0
 13 14  1  0
 14 15  3  0
 13 16  1  0
 16 17  2  0
 17 18  1  0
 18 19  2  0
 19 20  1  0
 20 21  2  0
 21 22  1  0
 22 23  2  0
 23 24  1  0
 11 25  1  0
 25 26  2  0
 25 27  1  0
 27 28  1  0
 28 29  2  0
 29  6  1  0
 28  9  1  0
 24 16  1  0
 23 18  1  0
  1 30  1  0
  1 31  1  0
  1 32  1  0
  2 33  1  0
  2 34  1  0
  4 35  1  0
  4 36  1  0
  5 37  1  0
  5 38  1  0
  5 39  1  0
  7 40  1  0
  8 41  1  0
 10 42  1  0
 12 43  1  0
 19 44  1  0
 20 45  1  0
 21 46  1  0
 22 47  1  0
 29 48  1  0
M  END
