
     RDKit          3D

 47 53  0  0  0  0  0  0  0  0999 V2000
    5.0809    2.2979   -0.6940 C   0  0  0  0  0  0  0  0  0  0  0  0
    3.7109    2.1872   -0.7559 C   0  0  0  0  0  0  0  0  0  0  0  0
    3.0419    1.0020   -0.4412 C   0  0  0  0  0  0  0  0  0  0  0  0
    3.7740   -0.0871   -0.0580 C   0  0  0  0  0  0  0  0  0  0  0  0
    3.1559   -1.2629    0.2574 C   0  0  0  0  0  0  0  0  0  0  0  0
    3.9168   -2.3484    0.6418 C   0  0  0  0  0  0  0  0  0  0  0  0
    5.2928   -2.2311    0.7023 C   0  0  0  0  0  0  0  0  0  0  0  0
    5.9175   -1.0447    0.3840 C   0  0  0  0  0  0  0  0  0  0  0  0
    5.1671    0.0332    0.0026 C   0  0  0  0  0  0  0  0  0  0  0  0
    5.8187    1.2014   -0.3081 C   0  0  0  0  0  0  0  0  0  0  0  0
    1.7638   -1.3583    0.1868 N   0  0  0  0  0  0  0  0  0  0  0  0
    0.9149   -0.3586   -0.5067 C   0  0  0  0  0  0  0  0  0  0  0  0
   -0.2541   -0.1822    0.3334 C   0  0  0  0  0  0  0  0  0  0  0  0
   -0.0015   -0.0768    1.7066 C   0  0  0  0  0  0  0  0  0  0  0  0
   -1.0358    0.0801    2.5856 C   0  0  0  0  0  0  0  0  0  0  0  0
   -2.3451    0.1371    2.1321 C   0  0  0  0  0  0  0  0  0  0  0  0
   -3.3966    0.2949    3.0054 C   0  0  0  0  0  0  0  0  0  0  0  0
   -4.6884    0.3506    2.5483 C   0  0  0  0  0  0  0  0  0  0  0  0
   -4.8879    0.2429    1.1877 C   0  0  0  0  0  0  0  0  0  0  0  0
   -6.1886    0.2979    0.6970 C   0  0  0  0  0  0  0  0  0  0  0  0
   -6.4433    0.1967   -0.6544 C   0  0  0  0  0  0  0  0  0  0  0  0
   -5.3988    0.0385   -1.5387 C   0  0  0  0  0  0  0  0  0  0  0  0
   -4.0948   -0.0195   -1.0790 C   0  0  0  0  0  0  0  0  0  0  0  0
   -3.0415   -0.1763   -1.9498 C   0  0  0  0  0  0  0  0  0  0  0  0
   -1.7428   -0.2338   -1.4970 C   0  0  0  0  0  0  0  0  0  0  0  0
   -1.5236   -0.1299   -0.1426 C   0  0  0  0  0  0  0  0  0  0  0  0
   -2.5728    0.0317    0.7766 C   0  0  0  0  0  0  0  0  0  0  0  0
   -3.8649    0.0838    0.2765 C   0  0  0  0  0  0  0  0  0  0  0  0
    1.6193    0.9337   -0.5180 N   0  0  0  0  0  0  0  0  0  0  0  0
    5.5649    3.2477   -0.9499 H   0  0  0  0  0  0  0  0  0  0  0  0
    3.1027    3.0342   -1.0567 H   0  0  0  0  0  0  0  0  0  0  0  0
    3.4010   -3.2778    0.8893 H   0  0  0  0  0  0  0  0  0  0  0  0
    5.9043   -3.0662    0.9999 H   0  0  0  0  0  0  0  0  0  0  0  0
    7.0059   -0.9500    0.4311 H   0  0  0  0  0  0  0  0  0  0  0  0
    6.8946    1.2753   -0.2555 H   0  0  0  0  0  0  0  0  0  0  0  0
    1.2281   -2.1508    0.6212 H   0  0  0  0  0  0  0  0  0  0  0  0
    0.8335   -0.7560   -1.4963 H   0  0  0  0  0  0  0  0  0  0  0  0
    1.0026   -0.1157    2.1067 H   0  0  0  0  0  0  0  0  0  0  0  0
   -0.8686    0.1655    3.6680 H   0  0  0  0  0  0  0  0  0  0  0  0
   -3.2006    0.3775    4.0843 H   0  0  0  0  0  0  0  0  0  0  0  0
   -5.5349    0.4756    3.2291 H   0  0  0  0  0  0  0  0  0  0  0  0
   -6.9838    0.4236    1.4292 H   0  0  0  0  0  0  0  0  0  0  0  0
   -7.4695    0.2420   -1.0194 H   0  0  0  0  0  0  0  0  0  0  0  0
   -5.5537   -0.0448   -2.6045 H   0  0  0  0  0  0  0  0  0  0  0  0
   -3.2098   -0.2588   -3.0208 H   0  0  0  0  0  0  0  0  0  0  0  0
   -0.9053   -0.3522   -2.1693 H   0  0  0  0  0  0  0  0  0  0  0  0
    1.0947    1.8305   -0.5824 H   0  0  0  0  0  0  0  0  0  0  0  0
  1  2  2  0
  2  3  1  0
  3  4  2  0
  4  5  1  0
  5  6  2  0
  6  7  1  0
  7  8  2  0
  8  9  1  0
  9 10  2  0
  5 11  1  0
 11 12  1  0
 12 13  1  0
 13 14  2  0
 14 15  1  0
 15 16  2  0
 16 17  1  0
 17 18  2  0
 18 19  1  0
 19 20  2  0
 20 21  1  0
 21 22  2  0
 22 23  1  0
 23 24  2  0
 24 25  1  0
 25 26  2  0
 26 27  1  0
 27 28  2  0
 12 29  1  0
 10  1  1  0
 26 13  1  0
 29  3  1  0
  9  4  1  0
 27 16  1  0
 28 19  1  0
 28 23  1  0
  1 30  1  0
  2 31  1  0
  6 32  1  0
  7 33  1  0
  8 34  1  0
 10 35  1  0
 11 36  1  0
 12 37  1  0
 14 38  1  0
 15 39  1  0
 17 40  1  0
 18 41  1  0
 20 42  1  0
 21 43  1  0
 22 44  1  0
 24 45  1  0
 25 46  1  0
 29 47  1  0
M  END
