
     RDKit          3D

 24 26  0  0  0  0  0  0  0  0999 V2000
   -4.6615   -0.5182    0.4624 C   0  0  0  0  0  0  0  0  0  0  0  0
   -4.1963    0.4557   -0.3967 C   0  0  0  0  0  0  0  0  0  0  0  0
   -2.8176    0.6096   -0.5360 C   0  0  0  0  0  0  0  0  0  0  0  0
   -1.9285   -0.1789    0.1560 C   0  0  0  0  0  0  0  0  0  0  0  0
   -0.4882   -0.0375    0.0275 C   0  0  0  0  0  0  0  0  0  0  0  0
    0.7801   -0.9201    0.8014 P   0  0  0  0  0  0  0  0  0  0  0  0
    2.2910   -0.2808    0.2342 C   0  0  0  0  0  0  0  0  0  0  0  0
    3.5886   -0.6526    0.5581 C   0  0  0  0  0  0  0  0  0  0  0  0
    4.6692   -0.0250    0.0024 C   0  0  0  0  0  0  0  0  0  0  0  0
    4.4679    0.9956   -0.8959 C   0  0  0  0  0  0  0  0  0  0  0  0
    3.2028    1.3983   -1.2471 C   0  0  0  0  0  0  0  0  0  0  0  0
    2.1306    0.7473   -0.6708 C   0  0  0  0  0  0  0  0  0  0  0  0
    0.4576    1.0213   -0.9076 S   0  0  0  0  0  0  0  0  0  0  0  0
   -2.4211   -1.1423    1.0060 C   0  0  0  0  0  0  0  0  0  0  0  0
   -3.7812   -1.3152    1.1619 C   0  0  0  0  0  0  0  0  0  0  0  0
   -5.7376   -0.6120    0.5480 H   0  0  0  0  0  0  0  0  0  0  0  0
   -4.8908    1.0894   -0.9530 H   0  0  0  0  0  0  0  0  0  0  0  0
   -2.4514    1.3589   -1.1970 H   0  0  0  0  0  0  0  0  0  0  0  0
    3.7376   -1.4595    1.2684 H   0  0  0  0  0  0  0  0  0  0  0  0
    5.6684   -0.3616    0.2961 H   0  0  0  0  0  0  0  0  0  0  0  0
    5.3208    1.4901   -1.3338 H   0  0  0  0  0  0  0  0  0  0  0  0
    3.0291    2.2002   -1.9529 H   0  0  0  0  0  0  0  0  0  0  0  0
   -1.7635   -1.8025    1.5857 H   0  0  0  0  0  0  0  0  0  0  0  0
   -4.2059   -2.0601    1.8192 H   0  0  0  0  0  0  0  0  0  0  0  0
  1  2  2  0
  2  3  1  0
  3  4  2  0
  4  5  1  0
  5  6  2  0
  6  7  1  0
  7  8  2  0
  8  9  1  0
  9 10  2  0
 10 11  1  0
 11 12  2  0
 12 13  1  0
  4 14  1  0
 14 15  2  0
 15  1  1  0
 13  5  1  0
 12  7  1  0
  1 16  1  0
  2 17  1  0
  3 18  1  0
  8 19  1  0
  9 20  1  0
 10 21  1  0
 11 22  1  0
 14 23  1  0
 15 24  1  0
M  END
