
     RDKit          3D

 28 31  0  0  0  0  0  0  0  0999 V2000
    1.6822    2.9707   -0.3571 O   0  0  0  0  0  0  0  0  0  0  0  0
    1.5006    1.7325   -0.2165 C   0  0  0  0  0  0  0  0  0  0  0  0
    2.5381    0.7182   -0.1204 C   0  0  0  0  0  0  0  0  0  0  0  0
    3.9330    0.7778   -0.1494 C   0  0  0  0  0  0  0  0  0  0  0  0
    4.6819   -0.3768   -0.0331 C   0  0  0  0  0  0  0  0  0  0  0  0
    4.0779   -1.6023    0.1128 C   0  0  0  0  0  0  0  0  0  0  0  0
    2.7078   -1.6531    0.1405 C   0  0  0  0  0  0  0  0  0  0  0  0
    1.9332   -0.5076    0.0255 C   0  0  0  0  0  0  0  0  0  0  0  0
    0.4746   -0.2868    0.0244 C   0  0  0  0  0  0  0  0  0  0  0  0
   -0.4999   -1.1183    0.1325 N   0  0  0  0  0  0  0  0  0  0  0  0
   -1.8770   -0.6914    0.1071 C   0  0  0  0  0  0  0  0  0  0  0  0
   -2.8881   -1.6381    0.2286 C   0  0  0  0  0  0  0  0  0  0  0  0
   -4.2294   -1.3393    0.2169 C   0  0  0  0  0  0  0  0  0  0  0  0
   -4.5791   -0.0045    0.0741 C   0  0  0  0  0  0  0  0  0  0  0  0
   -3.5587    0.9096   -0.0439 C   0  0  0  0  0  0  0  0  0  0  0  0
   -2.2451    0.5884   -0.0292 N   0  0  0  0  0  4  0  0  0  0  0  0
   -1.1959    1.6740   -0.1667 B   0  0  0  0  0  4  0  0  0  0  0  0
   -1.3760    2.6462    0.8993 F   0  0  0  0  0  0  0  0  0  0  0  0
   -1.3162    2.4028   -1.4211 F   0  0  0  0  0  0  0  0  0  0  0  0
    0.2161    1.0951   -0.1251 N   0  0  0  0  0  0  0  0  0  0  0  0
    4.4048    1.7433   -0.2643 H   0  0  0  0  0  0  0  0  0  0  0  0
    5.7660   -0.3568   -0.0527 H   0  0  0  0  0  0  0  0  0  0  0  0
    4.6822   -2.5165    0.2048 H   0  0  0  0  0  0  0  0  0  0  0  0
    2.2176   -2.6216    0.2560 H   0  0  0  0  0  0  0  0  0  0  0  0
   -2.5878   -2.6692    0.3384 H   0  0  0  0  0  0  0  0  0  0  0  0
   -4.9745   -2.1226    0.3159 H   0  0  0  0  0  0  0  0  0  0  0  0
   -5.6266    0.2831    0.0589 H   0  0  0  0  0  0  0  0  0  0  0  0
   -3.8618    1.9632   -0.1561 H   0  0  0  0  0  0  0  0  0  0  0  0
  1  2  2  0
  2  3  1  0
  3  4  2  0
  4  5  1  0
  5  6  2  0
  6  7  1  0
  7  8  2  0
  8  9  1  0
  9 10  2  0
 10 11  1  0
 11 12  2  0
 12 13  1  0
 13 14  2  0
 14 15  1  0
 15 16  2  0
 16 17  1  0
 17 18  1  0
 17 19  1  0
 17 20  1  0
 20  2  1  0
  8  3  1  0
 20  9  1  0
 16 11  1  0
  4 21  1  0
  5 22  1  0
  6 23  1  0
  7 24  1  0
 12 25  1  0
 13 26  1  0
 14 27  1  0
 15 28  1  0
M  CHG  2  16   1  17  -1
M  END
