
     RDKit          3D

 34 36  0  0  0  0  0  0  0  0999 V2000
    5.7756    1.1472    0.1962 C   0  0  0  0  0  0  0  0  0  0  0  0
    5.0553    0.0396   -0.3087 O   0  0  0  0  0  0  0  0  0  0  0  0
    3.6906   -0.0678   -0.2741 C   0  0  0  0  0  0  0  0  0  0  0  0
    3.1263   -1.2145   -0.8087 C   0  0  0  0  0  0  0  0  0  0  0  0
    1.7529   -1.3196   -0.7723 C   0  0  0  0  0  0  0  0  0  0  0  0
    0.9391   -0.3443   -0.2340 C   0  0  0  0  0  0  0  0  0  0  0  0
    1.5056    0.7990    0.2988 C   0  0  0  0  0  0  0  0  0  0  0  0
    2.9001    0.9223    0.2701 C   0  0  0  0  0  0  0  0  0  0  0  0
    0.4323    1.6406    0.7872 C   0  0  0  0  0  0  0  0  0  0  0  0
    0.5732    2.7503    1.3308 O   0  0  0  0  0  0  0  0  0  0  0  0
   -0.8164    0.9573    0.5277 C   0  0  0  0  0  0  0  0  0  0  0  0
   -2.1582    1.2689    0.7695 C   0  0  0  0  0  0  0  0  0  0  0  0
   -3.1464    0.4110    0.4061 C   0  0  0  0  0  0  0  0  0  0  0  0
   -4.4870    0.6759    0.6247 O   0  0  0  0  0  0  0  0  0  0  0  0
   -4.9948    1.8231    1.2288 C   0  0  0  0  0  0  0  0  0  0  0  0
   -2.8369   -0.7862   -0.2101 C   0  0  0  0  0  0  0  0  0  0  0  0
   -1.5274   -1.1341   -0.4679 C   0  0  0  0  0  0  0  0  0  0  0  0
   -1.1506   -2.3021   -1.0740 O   0  0  0  0  0  0  0  0  0  0  0  0
   -2.0236   -3.3033   -1.5162 C   0  0  0  0  0  0  0  0  0  0  0  0
   -0.5288   -0.2458   -0.0901 C   0  0  0  0  0  0  0  0  0  0  0  0
    6.8004    1.1908   -0.1949 H   0  0  0  0  0  0  0  0  0  0  0  0
    5.1966    2.0686   -0.0608 H   0  0  0  0  0  0  0  0  0  0  0  0
    5.8249    1.0421    1.2886 H   0  0  0  0  0  0  0  0  0  0  0  0
    3.7594   -1.9958   -1.2387 H   0  0  0  0  0  0  0  0  0  0  0  0
    1.3065   -2.2109   -1.1873 H   0  0  0  0  0  0  0  0  0  0  0  0
    3.3180    1.8287    0.6946 H   0  0  0  0  0  0  0  0  0  0  0  0
   -2.3733    2.2032    1.2487 H   0  0  0  0  0  0  0  0  0  0  0  0
   -5.9359    2.0970    0.6694 H   0  0  0  0  0  0  0  0  0  0  0  0
   -5.3097    1.6200    2.2841 H   0  0  0  0  0  0  0  0  0  0  0  0
   -4.3493    2.7078    1.1729 H   0  0  0  0  0  0  0  0  0  0  0  0
   -3.6249   -1.4683   -0.4989 H   0  0  0  0  0  0  0  0  0  0  0  0
   -2.3984   -3.8485   -0.6279 H   0  0  0  0  0  0  0  0  0  0  0  0
   -1.4337   -4.0281   -2.1154 H   0  0  0  0  0  0  0  0  0  0  0  0
   -2.8613   -2.9241   -2.1182 H   0  0  0  0  0  0  0  0  0  0  0  0
  1  2  1  0
  2  3  1  0
  3  4  2  0
  4  5  1  0
  5  6  2  0
  6  7  1  0
  7  8  2  0
  7  9  1  0
  9 10  2  0
  9 11  1  0
 11 12  2  0
 12 13  1  0
 13 14  1  0
 14 15  1  0
 13 16  2  0
 16 17  1  0
 17 18  1  0
 18 19  1  0
 17 20  2  0
  8  3  1  0
 20 11  1  0
 20  6  1  0
  1 21  1  0
  1 22  1  0
  1 23  1  0
  4 24  1  0
  5 25  1  0
  8 26  1  0
 12 27  1  0
 15 28  1  0
 15 29  1  0
 15 30  1  0
 16 31  1  0
 19 32  1  0
 19 33  1  0
 19 34  1  0
M  END
