
     RDKit          3D

 82 90  0  0  0  0  0  0  0  0999 V2000
   -0.3296    1.8083   -5.6842 N   0  0  0  0  0  0  0  0  0  0  0  0
   -0.1838    1.8964   -4.4199 C   0  0  0  0  0  0  0  0  0  0  0  0
   -0.0007    2.0103   -2.9878 C   0  0  0  0  0  0  0  0  0  0  0  0
   -0.9342    2.8126   -2.3145 C   0  0  0  0  0  0  0  0  0  0  0  0
   -1.8039    2.4933   -1.2826 C   0  0  0  0  0  0  0  0  0  0  0  0
   -1.4204    2.1591    0.0254 C   0  0  0  0  0  0  0  0  0  0  0  0
   -2.2426    1.7866    1.0664 C   0  0  0  0  0  0  0  0  0  0  0  0
   -3.6572    1.7014    0.9873 C   0  0  0  0  0  0  0  0  0  0  0  0
   -4.0291    2.0443   -0.3285 C   0  0  0  0  0  0  0  0  0  0  0  0
   -3.1918    2.4007   -1.3559 C   0  0  0  0  0  0  0  0  0  0  0  0
   -4.5670    1.4136    2.0485 C   0  0  0  0  0  0  0  0  0  0  0  0
   -4.9790    2.3881    3.0283 C   0  0  0  0  0  0  0  0  0  0  0  0
   -5.9837    2.2860    3.9403 C   0  0  0  0  0  0  0  0  0  0  0  0
   -6.6807    1.1261    3.9095 C   0  0  0  0  0  0  0  0  0  0  0  0
   -6.3468    0.1177    3.0064 C   0  0  0  0  0  0  0  0  0  0  0  0
   -7.2497   -0.9683    3.1536 C   0  0  0  0  0  0  0  0  0  0  0  0
   -7.0825   -2.0164    2.3238 C   0  0  0  0  0  0  0  0  0  0  0  0
   -6.0912   -1.9716    1.4235 C   0  0  0  0  0  0  0  0  0  0  0  0
   -5.1207   -0.9036    1.2123 C   0  0  0  0  0  0  0  0  0  0  0  0
   -3.9514   -1.0752    0.3487 C   0  0  0  0  0  0  0  0  0  0  0  0
   -2.8217   -1.8499    0.7968 C   0  0  0  0  0  0  0  0  0  0  0  0
   -1.8516   -2.3085   -0.0783 C   0  0  0  0  0  0  0  0  0  0  0  0
   -1.8113   -2.1060   -1.4515 C   0  0  0  0  0  0  0  0  0  0  0  0
   -2.8924   -1.3340   -1.8499 C   0  0  0  0  0  0  0  0  0  0  0  0
   -3.8824   -0.8676   -1.0020 C   0  0  0  0  0  0  0  0  0  0  0  0
   -0.9415   -2.8659   -2.2946 C   0  0  0  0  0  0  0  0  0  0  0  0
    0.3791   -3.2323   -2.1138 C   0  0  0  0  0  0  0  0  0  0  0  0
    0.4228   -4.7831   -2.5241 C   0  0  0  0  0  0  0  0  0  0  0  0
    0.4760   -5.9739   -2.8408 N   0  0  0  0  0  0  0  0  0  0  0  0
    1.4696   -2.5907   -1.5770 C   0  0  0  0  0  0  0  0  0  0  0  0
    1.8435   -2.5275   -0.2452 C   0  0  0  0  0  0  0  0  0  0  0  0
    2.9751   -2.0583    0.3291 C   0  0  0  0  0  0  0  0  0  0  0  0
    4.0792   -1.4893   -0.4283 C   0  0  0  0  0  0  0  0  0  0  0  0
    3.7011   -1.5177   -1.7574 C   0  0  0  0  0  0  0  0  0  0  0  0
    2.5481   -2.0005   -2.3359 C   0  0  0  0  0  0  0  0  0  0  0  0
    5.3256   -1.1310    0.1134 C   0  0  0  0  0  0  0  0  0  0  0  0
    6.3469   -2.0757    0.4578 C   0  0  0  0  0  0  0  0  0  0  0  0
    7.4666   -1.8035    1.0895 C   0  0  0  0  0  0  0  0  0  0  0  0
    7.7802   -0.5674    1.5001 C   0  0  0  0  0  0  0  0  0  0  0  0
    6.8542    0.4119    1.2054 C   0  0  0  0  0  0  0  0  0  0  0  0
    7.3205    1.6738    1.6846 C   0  0  0  0  0  0  0  0  0  0  0  0
    6.5117    2.6965    1.4342 C   0  0  0  0  0  0  0  0  0  0  0  0
    5.3498    2.6074    0.7692 C   0  0  0  0  0  0  0  0  0  0  0  0
    4.8457    1.3196    0.2646 C   0  0  0  0  0  0  0  0  0  0  0  0
    3.6827    1.2778   -0.5909 C   0  0  0  0  0  0  0  0  0  0  0  0
    3.6282    1.8201   -1.8874 C   0  0  0  0  0  0  0  0  0  0  0  0
    2.5352    1.9802   -2.6764 C   0  0  0  0  0  0  0  0  0  0  0  0
    1.2090    1.5812   -2.2636 C   0  0  0  0  0  0  0  0  0  0  0  0
    1.2689    1.0313   -1.0363 C   0  0  0  0  0  0  0  0  0  0  0  0
    2.3843    0.8872   -0.2454 C   0  0  0  0  0  0  0  0  0  0  0  0
    5.6502    0.2350    0.5289 C   0  0  0  0  0  0  0  0  0  0  0  0
   -5.3312    0.2016    2.0941 C   0  0  0  0  0  0  0  0  0  0  0  0
   -0.7920    3.8786   -2.7881 H   0  0  0  0  0  0  0  0  0  0  0  0
   -0.3950    2.2515    0.5111 H   0  0  0  0  0  0  0  0  0  0  0  0
   -1.5791    1.4797    1.9343 H   0  0  0  0  0  0  0  0  0  0  0  0
   -5.0997    2.0524   -0.7794 H   0  0  0  0  0  0  0  0  0  0  0  0
   -3.8742    2.5644   -2.2793 H   0  0  0  0  0  0  0  0  0  0  0  0
   -4.4841    3.3767    3.1265 H   0  0  0  0  0  0  0  0  0  0  0  0
   -6.2375    3.0483    4.6609 H   0  0  0  0  0  0  0  0  0  0  0  0
   -7.5402    0.9923    4.6535 H   0  0  0  0  0  0  0  0  0  0  0  0
   -8.0603   -0.9740    3.9059 H   0  0  0  0  0  0  0  0  0  0  0  0
   -7.7589   -2.9037    2.3851 H   0  0  0  0  0  0  0  0  0  0  0  0
   -6.0969   -2.8785    0.7694 H   0  0  0  0  0  0  0  0  0  0  0  0
   -2.5283   -2.0831    1.8613 H   0  0  0  0  0  0  0  0  0  0  0  0
   -1.0988   -2.9067    0.5688 H   0  0  0  0  0  0  0  0  0  0  0  0
   -3.0744   -0.8667   -2.8881 H   0  0  0  0  0  0  0  0  0  0  0  0
   -4.6087   -0.1950   -1.6323 H   0  0  0  0  0  0  0  0  0  0  0  0
   -1.2509   -3.4408   -3.2838 H   0  0  0  0  0  0  0  0  0  0  0  0
    1.1328   -2.8610    0.6574 H   0  0  0  0  0  0  0  0  0  0  0  0
    2.8227   -2.0732    1.4565 H   0  0  0  0  0  0  0  0  0  0  0  0
    4.2739   -1.0496   -2.6678 H   0  0  0  0  0  0  0  0  0  0  0  0
    2.5742   -1.8038   -3.4314 H   0  0  0  0  0  0  0  0  0  0  0  0
    6.2272   -3.1603    0.1957 H   0  0  0  0  0  0  0  0  0  0  0  0
    8.1884   -2.6179    1.3362 H   0  0  0  0  0  0  0  0  0  0  0  0
    8.7426   -0.3493    2.0090 H   0  0  0  0  0  0  0  0  0  0  0  0
    8.2829    1.7487    2.1981 H   0  0  0  0  0  0  0  0  0  0  0  0
    6.8607    3.6938    1.7855 H   0  0  0  0  0  0  0  0  0  0  0  0
    4.7983    3.5039    0.6342 H   0  0  0  0  0  0  0  0  0  0  0  0
    4.5734    2.0779   -2.5620 H   0  0  0  0  0  0  0  0  0  0  0  0
    2.8487    2.5315   -3.6166 H   0  0  0  0  0  0  0  0  0  0  0  0
    0.4128    0.4148   -0.4991 H   0  0  0  0  0  0  0  0  0  0  0  0
    2.0646    0.3993    0.7641 H   0  0  0  0  0  0  0  0  0  0  0  0
  1  2  3  0
  2  3  1  0
  3  4  2  0
  4  5  1  0
  5  6  2  0
  6  7  1  0
  7  8  2  0
  8  9  1  0
  9 10  2  0
  8 11  1  0
 11 12  2  0
 12 13  1  0
 13 14  2  0
 14 15  1  0
 15 16  2  0
 16 17  1  0
 17 18  2  0
 18 19  1  0
 19 20  1  0
 20 21  2  0
 21 22  1  0
 22 23  2  0
 23 24  1  0
 24 25  2  0
 23 26  1  0
 26 27  2  0
 27 28  1  0
 28 29  3  0
 27 30  1  0
 30 31  2  0
 31 32  1  0
 32 33  2  0
 33 34  1  0
 34 35  2  0
 33 36  1  0
 36 37  1  0
 37 38  2  0
 38 39  1  0
 39 40  2  0
 40 41  1  0
 41 42  2  0
 42 43  1  0
 43 44  2  0
 44 45  1  0
 45 46  2  0
 46 47  1  0
 47 48  2  0
 48 49  1  0
 49 50  2  0
 44 51  1  0
 19 52  2  0
 48  3  1  0
 10  5  1  0
 52 11  1  0
 52 15  1  0
 25 20  1  0
 35 30  1  0
 51 36  2  0
 51 40  1  0
 50 45  1  0
  4 53  1  0
  6 54  1  0
  7 55  1  0
  9 56  1  0
 10 57  1  0
 12 58  1  0
 13 59  1  0
 14 60  1  0
 16 61  1  0
 17 62  1  0
 18 63  1  0
 21 64  1  0
 22 65  1  0
 24 66  1  0
 25 67  1  0
 26 68  1  0
 31 69  1  0
 32 70  1  0
 34 71  1  0
 35 72  1  0
 37 73  1  0
 38 74  1  0
 39 75  1  0
 41 76  1  0
 42 77  1  0
 43 78  1  0
 46 79  1  0
 47 80  1  0
 49 81  1  0
 50 82  1  0
M  END
