
     RDKit          3D

 34 37  0  0  0  0  0  0  0  0999 V2000
    5.9819   -0.9706    1.2111 O   0  0  0  0  0  0  0  0  0  0  0  0
    5.3497   -0.8264    0.1394 C   0  0  0  0  0  0  0  0  0  0  0  0
    3.9067   -0.6013    0.0963 C   0  0  0  0  0  0  0  0  0  0  0  0
    3.2246   -0.4444   -1.0910 C   0  0  0  0  0  0  0  0  0  0  0  0
    1.8872   -0.2371   -1.0991 N   0  0  0  0  0  0  0  0  0  0  0  0
    1.1721   -0.1759    0.0421 C   0  0  0  0  0  0  0  0  0  0  0  0
   -0.2674    0.0488   -0.0037 C   0  0  0  0  0  0  0  0  0  0  0  0
   -1.1533   -1.0285   -0.0776 C   0  0  0  0  0  0  0  0  0  0  0  0
   -0.6326   -2.3262   -0.1067 C   0  0  0  0  0  0  0  0  0  0  0  0
   -1.5106   -3.3738   -0.1792 C   0  0  0  0  0  0  0  0  0  0  0  0
   -2.8827   -3.2377   -0.2259 C   0  0  0  0  0  0  0  0  0  0  0  0
   -3.3625   -1.9442   -0.1954 C   0  0  0  0  0  0  0  0  0  0  0  0
   -2.5198   -0.8597   -0.1228 C   0  0  0  0  0  0  0  0  0  0  0  0
   -2.9916    0.4456   -0.0916 C   0  0  0  0  0  0  0  0  0  0  0  0
   -2.1281    1.5284   -0.0183 C   0  0  0  0  0  0  0  0  0  0  0  0
   -2.6011    2.8234    0.0125 C   0  0  0  0  0  0  0  0  0  0  0  0
   -1.7456    3.9099    0.0856 C   0  0  0  0  0  0  0  0  0  0  0  0
   -0.3798    3.7311    0.1304 C   0  0  0  0  0  0  0  0  0  0  0  0
    0.0841    2.4356    0.0992 C   0  0  0  0  0  0  0  0  0  0  0  0
   -0.7713    1.3314    0.0255 C   0  0  0  0  0  0  0  0  0  0  0  0
    1.8442   -0.3299    1.1971 N   0  0  0  0  0  0  0  0  0  0  0  0
    3.1718   -0.5381    1.2627 C   0  0  0  0  0  0  0  0  0  0  0  0
    5.9076   -0.8728   -0.7824 H   0  0  0  0  0  0  0  0  0  0  0  0
    3.7678   -0.4885   -2.0143 H   0  0  0  0  0  0  0  0  0  0  0  0
    0.4424   -2.4213   -0.0697 H   0  0  0  0  0  0  0  0  0  0  0  0
   -1.1025   -4.3949   -0.2022 H   0  0  0  0  0  0  0  0  0  0  0  0
   -3.5459   -4.1050   -0.2835 H   0  0  0  0  0  0  0  0  0  0  0  0
   -4.4478   -1.7719   -0.2299 H   0  0  0  0  0  0  0  0  0  0  0  0
   -4.0429    0.6100   -0.1251 H   0  0  0  0  0  0  0  0  0  0  0  0
   -3.6672    2.9693   -0.0223 H   0  0  0  0  0  0  0  0  0  0  0  0
   -2.1318    4.9366    0.1096 H   0  0  0  0  0  0  0  0  0  0  0  0
    0.2994    4.5733    0.1877 H   0  0  0  0  0  0  0  0  0  0  0  0
    1.1549    2.2639    0.1332 H   0  0  0  0  0  0  0  0  0  0  0  0
    3.6898   -0.6592    2.2083 H   0  0  0  0  0  0  0  0  0  0  0  0
  1  2  2  0
  2  3  1  0
  3  4  2  0
  4  5  1  0
  5  6  2  0
  6  7  1  0
  7  8  1  0
  8  9  2  0
  9 10  1  0
 10 11  2  0
 11 12  1  0
 12 13  2  0
 13 14  1  0
 14 15  2  0
 15 16  1  0
 16 17  2  0
 17 18  1  0
 18 19  2  0
 19 20  1  0
  6 21  1  0
 21 22  2  0
 22  3  1  0
 20  7  2  0
 13  8  1  0
 20 15  1  0
  2 23  1  0
  4 24  1  0
  9 25  1  0
 10 26  1  0
 11 27  1  0
 12 28  1  0
 14 29  1  0
 16 30  1  0
 17 31  1  0
 18 32  1  0
 19 33  1  0
 22 34  1  0
M  END
