
     RDKit          3D

 16 17  0  0  0  0  0  0  0  0999 V2000
   -3.4214    1.4616    1.9495 N   0  0  0  0  0  0  0  0  0  0  0  0
   -2.4835    0.9808    1.4471 C   0  0  0  0  0  0  0  0  0  0  0  0
   -1.3368    0.4029    0.8090 C   0  0  0  0  0  0  0  0  0  0  0  0
   -1.0171   -0.9358    0.9290 C   0  0  0  0  0  0  0  0  0  0  0  0
    0.0876   -1.4897    0.3135 C   0  0  0  0  0  0  0  0  0  0  0  0
    0.9309   -0.7186   -0.4583 C   0  0  0  0  0  0  0  0  0  0  0  0
    2.0797   -1.2586   -1.1074 N   0  0  0  0  0  0  0  0  0  0  0  0
    0.6126    0.6186   -0.5787 C   0  0  0  0  0  0  0  0  0  0  0  0
    1.2269    1.6110   -1.2499 N   0  0  0  0  0  0  0  0  0  0  0  0
    0.5494    2.7162   -1.0661 O   0  0  0  0  0  0  0  0  0  0  0  0
   -0.4743    2.4759   -0.3051 N   0  0  0  0  0  0  0  0  0  0  0  0
   -0.4913    1.1758    0.0353 C   0  0  0  0  0  0  0  0  0  0  0  0
   -1.6812   -1.5560    1.5400 H   0  0  0  0  0  0  0  0  0  0  0  0
    0.3258   -2.5398    0.4161 H   0  0  0  0  0  0  0  0  0  0  0  0
    2.9554   -1.4944   -0.5540 H   0  0  0  0  0  0  0  0  0  0  0  0
    2.1372   -1.4498   -2.1200 H   0  0  0  0  0  0  0  0  0  0  0  0
  1  2  3  0
  2  3  1  0
  3  4  2  0
  4  5  1  0
  5  6  2  0
  6  7  1  0
  6  8  1  0
  8  9  2  0
  9 10  1  0
 10 11  1  0
 11 12  2  0
 12  3  1  0
 12  8  1  0
  4 13  1  0
  5 14  1  0
  7 15  1  0
  7 16  1  0
M  END
