
     RDKit          3D

 53 56  0  0  0  0  0  0  0  0999 V2000
   -4.8120    5.6864    1.3797 C   0  0  0  0  0  0  0  0  0  0  0  0
   -3.9645    4.5325    0.9897 C   0  0  0  0  0  0  0  0  0  0  0  0
   -4.0604    3.9670   -0.3143 C   0  0  0  0  0  0  0  0  0  0  0  0
   -3.2813    2.9172   -0.5657 C   0  0  0  0  0  0  0  0  0  0  0  0
   -2.4111    2.2656    0.1621 C   0  0  0  0  0  0  0  0  0  0  0  0
   -1.7199    1.1212   -0.0920 N   0  0  0  0  0  0  0  0  0  0  0  0
   -2.4366   -0.0464   -0.6564 C   0  0  0  0  0  0  0  0  0  0  0  0
   -1.8466   -0.6960   -1.7632 C   0  0  0  0  0  0  0  0  0  0  0  0
   -2.4296   -1.9664   -2.0282 C   0  0  0  0  0  0  0  0  0  0  0  0
   -3.4537   -2.4779   -1.2761 C   0  0  0  0  0  0  0  0  0  0  0  0
   -3.9109   -3.8628   -1.5570 C   0  0  0  0  0  0  0  0  0  0  0  0
   -3.9920   -1.7959   -0.2194 C   0  0  0  0  0  0  0  0  0  0  0  0
   -3.4469   -0.5279    0.0834 C   0  0  0  0  0  0  0  0  0  0  0  0
   -0.3453    0.8108    0.1450 C   0  0  0  0  0  0  0  0  0  0  0  0
   -0.2207   -0.4804    0.7565 C   0  0  0  0  0  0  0  0  0  0  0  0
    1.0191   -1.0002    0.9584 C   0  0  0  0  0  0  0  0  0  0  0  0
    2.1468   -0.2636    0.5705 C   0  0  0  0  0  0  0  0  0  0  0  0
    3.4747   -0.9452    0.7098 C   0  0  0  0  0  0  0  0  0  0  0  0
    3.7134   -2.0983    1.2655 C   0  0  0  0  0  0  0  0  0  0  0  0
    4.9238   -2.7291    1.2786 C   0  0  0  0  0  0  0  0  0  0  0  0
    5.9053   -1.8877    0.5700 C   0  0  0  0  0  0  0  0  0  0  0  0
    7.1407   -2.4792    0.0832 C   0  0  0  0  0  0  0  0  0  0  0  0
    8.0599   -2.2150   -0.6936 C   0  0  0  0  0  0  0  0  0  0  0  0
    9.0944   -3.4311   -0.6976 C   0  0  0  0  0  0  0  0  0  0  0  0
    9.8109   -4.2693   -0.7193 N   0  0  0  0  0  0  0  0  0  0  0  0
    8.4746   -1.2637   -1.6415 C   0  0  0  0  0  0  0  0  0  0  0  0
    8.7943   -0.5030   -2.4177 N   0  0  0  0  0  0  0  0  0  0  0  0
    5.0286   -0.5050    0.0884 S   0  0  0  0  0  0  0  0  0  0  0  0
    2.0657    0.9680   -0.0100 C   0  0  0  0  0  0  0  0  0  0  0  0
    0.7493    1.4456   -0.1936 C   0  0  0  0  0  0  0  0  0  0  0  0
   -2.2679    2.8218    1.5269 C   0  0  0  0  0  0  0  0  0  0  0  0
   -3.0661    3.9179    1.8321 C   0  0  0  0  0  0  0  0  0  0  0  0
   -5.8621    5.4222    0.9869 H   0  0  0  0  0  0  0  0  0  0  0  0
   -4.8135    5.8504    2.4681 H   0  0  0  0  0  0  0  0  0  0  0  0
   -4.5281    6.5738    0.8281 H   0  0  0  0  0  0  0  0  0  0  0  0
   -4.7905    4.4520   -0.9972 H   0  0  0  0  0  0  0  0  0  0  0  0
   -3.3675    2.5225   -1.6658 H   0  0  0  0  0  0  0  0  0  0  0  0
   -1.0779   -0.2798   -2.3359 H   0  0  0  0  0  0  0  0  0  0  0  0
   -2.0492   -2.5638   -2.8671 H   0  0  0  0  0  0  0  0  0  0  0  0
   -4.0101   -4.0258   -2.6818 H   0  0  0  0  0  0  0  0  0  0  0  0
   -4.8954   -4.0371   -1.0960 H   0  0  0  0  0  0  0  0  0  0  0  0
   -3.2093   -4.6503   -1.1543 H   0  0  0  0  0  0  0  0  0  0  0  0
   -4.7785   -2.2171    0.3544 H   0  0  0  0  0  0  0  0  0  0  0  0
   -3.8142    0.0747    0.9020 H   0  0  0  0  0  0  0  0  0  0  0  0
   -1.1186   -1.0358    1.0213 H   0  0  0  0  0  0  0  0  0  0  0  0
    1.1537   -1.9938    1.3990 H   0  0  0  0  0  0  0  0  0  0  0  0
    2.8758   -2.6839    1.8242 H   0  0  0  0  0  0  0  0  0  0  0  0
    5.2038   -3.6614    1.6726 H   0  0  0  0  0  0  0  0  0  0  0  0
    7.3024   -3.5177    0.6135 H   0  0  0  0  0  0  0  0  0  0  0  0
    2.9016    1.5710   -0.3300 H   0  0  0  0  0  0  0  0  0  0  0  0
    0.7133    2.4554   -0.6721 H   0  0  0  0  0  0  0  0  0  0  0  0
   -1.5955    2.3687    2.1825 H   0  0  0  0  0  0  0  0  0  0  0  0
   -2.9761    4.3660    2.8518 H   0  0  0  0  0  0  0  0  0  0  0  0
  1  2  1  0
  2  3  2  0
  3  4  1  0
  4  5  2  0
  5  6  1  0
  6  7  1  0
  7  8  2  0
  8  9  1  0
  9 10  2  0
 10 11  1  0
 10 12  1  0
 12 13  2  0
  6 14  1  0
 14 15  2  0
 15 16  1  0
 16 17  2  0
 17 18  1  0
 18 19  2  0
 19 20  1  0
 20 21  2  0
 21 22  1  0
 22 23  2  3
 23 24  1  0
 24 25  3  0
 23 26  1  0
 26 27  3  0
 21 28  1  0
 17 29  1  0
 29 30  2  0
  5 31  1  0
 31 32  2  0
 32  2  1  0
 13  7  1  0
 30 14  1  0
 28 18  1  0
  1 33  1  0
  1 34  1  0
  1 35  1  0
  3 36  1  0
  4 37  1  0
  8 38  1  0
  9 39  1  0
 11 40  1  0
 11 41  1  0
 11 42  1  0
 12 43  1  0
 13 44  1  0
 15 45  1  0
 16 46  1  0
 19 47  1  0
 20 48  1  0
 22 49  1  0
 29 50  1  0
 30 51  1  0
 31 52  1  0
 32 53  1  0
M  END
