
     RDKit          3D

 66 73  0  0  0  0  0  0  0  0999 V2000
    8.2936    2.4643   -0.2559 O   0  0  0  0  0  0  0  0  0  0  0  0
    7.5974    1.4262   -0.4209 C   0  0  0  0  0  0  0  0  0  0  0  0
    6.1367    1.5117   -0.4041 C   0  0  0  0  0  0  0  0  0  0  0  0
    5.4963    2.7102   -0.2061 C   0  0  0  0  0  0  0  0  0  0  0  0
    4.1211    2.7145   -0.1981 C   0  0  0  0  0  0  0  0  0  0  0  0
    3.3974    1.5563   -0.3824 C   0  0  0  0  0  0  0  0  0  0  0  0
    4.0497    0.3529   -0.5812 C   0  0  0  0  0  0  0  0  0  0  0  0
    3.3114   -0.8015   -0.7611 C   0  0  0  0  0  0  0  0  0  0  0  0
    1.8713   -0.7066   -0.7148 C   0  0  0  0  0  0  0  0  0  0  0  0
    0.6550   -0.6166   -0.6945 C   0  0  0  0  0  0  0  0  0  0  0  0
   -0.7510   -0.5095   -0.6515 C   0  0  0  0  0  0  0  0  0  0  0  0
   -1.9673   -0.4210   -0.6168 C   0  0  0  0  0  0  0  0  0  0  0  0
   -3.3963   -0.3211   -0.5514 C   0  0  0  0  0  0  0  0  0  0  0  0
   -4.0729    0.0609   -1.6911 C   0  0  0  0  0  0  0  0  0  0  0  0
   -5.4475    0.1889   -1.6121 C   0  0  0  0  0  0  0  0  0  0  0  0
   -6.1198   -0.0611   -0.4179 C   0  0  0  0  0  0  0  0  0  0  0  0
   -5.4094   -0.4421    0.7011 C   0  0  0  0  0  0  0  0  0  0  0  0
   -6.1182   -0.6779    1.8690 C   0  0  0  0  0  0  0  0  0  0  0  0
   -5.4126   -1.0569    2.9913 C   0  0  0  0  0  0  0  0  0  0  0  0
   -4.0306   -1.2086    2.9919 C   0  0  0  0  0  0  0  0  0  0  0  0
   -3.3838   -0.9588    1.8010 C   0  0  0  0  0  0  0  0  0  0  0  0
   -4.0227   -0.5786    0.6474 C   0  0  0  0  0  0  0  0  0  0  0  0
   -7.5662   -0.5380    1.9624 C   0  0  0  0  0  0  0  0  0  0  0  0
   -8.1672   -0.7647    3.0559 O   0  0  0  0  0  0  0  0  0  0  0  0
   -8.2748   -0.1428    0.7989 N   0  0  0  0  0  0  0  0  0  0  0  0
   -9.6733    0.0165    0.8405 C   0  0  0  0  0  0  0  0  0  0  0  0
  -10.4992   -0.9814    1.3112 C   0  0  0  0  0  0  0  0  0  0  0  0
  -11.8684   -0.8114    1.3490 C   0  0  0  0  0  0  0  0  0  0  0  0
  -12.4489    0.3829    0.9080 C   0  0  0  0  0  0  0  0  0  0  0  0
  -11.6014    1.3726    0.4390 C   0  0  0  0  0  0  0  0  0  0  0  0
  -10.2244    1.2004    0.4016 C   0  0  0  0  0  0  0  0  0  0  0  0
   -7.5731    0.1032   -0.4126 C   0  0  0  0  0  0  0  0  0  0  0  0
   -8.1921    0.4602   -1.4745 O   0  0  0  0  0  0  0  0  0  0  0  0
    3.9550   -2.0039   -0.9573 C   0  0  0  0  0  0  0  0  0  0  0  0
    5.3339   -2.0458   -0.9715 C   0  0  0  0  0  0  0  0  0  0  0  0
    6.0581   -0.8795   -0.7884 C   0  0  0  0  0  0  0  0  0  0  0  0
    5.4299    0.3216   -0.5939 C   0  0  0  0  0  0  0  0  0  0  0  0
    7.5181   -1.0013   -0.8111 C   0  0  0  0  0  0  0  0  0  0  0  0
    8.0553   -2.1193   -0.9922 O   0  0  0  0  0  0  0  0  0  0  0  0
    8.2865    0.2029   -0.6186 N   0  0  0  0  0  0  0  0  0  0  0  0
    9.7026    0.1465   -0.6177 C   0  0  0  0  0  0  0  0  0  0  0  0
   10.3778    0.8150    0.3850 C   0  0  0  0  0  0  0  0  0  0  0  0
   11.7669    0.7973    0.4483 C   0  0  0  0  0  0  0  0  0  0  0  0
   12.4974    0.1026   -0.5020 C   0  0  0  0  0  0  0  0  0  0  0  0
   11.8193   -0.5655   -1.5046 C   0  0  0  0  0  0  0  0  0  0  0  0
   10.4229   -0.5391   -1.5562 C   0  0  0  0  0  0  0  0  0  0  0  0
    6.0711    3.6141   -0.0626 H   0  0  0  0  0  0  0  0  0  0  0  0
    3.6214    3.6706   -0.0414 H   0  0  0  0  0  0  0  0  0  0  0  0
    2.3151    1.5599   -0.3764 H   0  0  0  0  0  0  0  0  0  0  0  0
   -3.5493    0.2529   -2.6106 H   0  0  0  0  0  0  0  0  0  0  0  0
   -6.0240    0.4867   -2.4815 H   0  0  0  0  0  0  0  0  0  0  0  0
   -5.9505   -1.2444    3.9094 H   0  0  0  0  0  0  0  0  0  0  0  0
   -3.4804   -1.5057    3.8739 H   0  0  0  0  0  0  0  0  0  0  0  0
   -2.2945   -1.0580    1.7255 H   0  0  0  0  0  0  0  0  0  0  0  0
  -10.1208   -1.9351    1.6704 H   0  0  0  0  0  0  0  0  0  0  0  0
  -12.5586   -1.5612    1.7082 H   0  0  0  0  0  0  0  0  0  0  0  0
  -13.5311    0.5154    0.9383 H   0  0  0  0  0  0  0  0  0  0  0  0
  -12.0216    2.3135    0.0887 H   0  0  0  0  0  0  0  0  0  0  0  0
   -9.6276    2.0333    0.0153 H   0  0  0  0  0  0  0  0  0  0  0  0
    3.3651   -2.8993   -1.0983 H   0  0  0  0  0  0  0  0  0  0  0  0
    5.8371   -2.9958   -1.1262 H   0  0  0  0  0  0  0  0  0  0  0  0
    9.8177    1.3673    1.1415 H   0  0  0  0  0  0  0  0  0  0  0  0
   12.3114    1.3233    1.2401 H   0  0  0  0  0  0  0  0  0  0  0  0
   13.5690    0.0878   -0.4535 H   0  0  0  0  0  0  0  0  0  0  0  0
   12.3965   -1.1067   -2.2435 H   0  0  0  0  0  0  0  0  0  0  0  0
    9.9215   -1.0730   -2.3554 H   0  0  0  0  0  0  0  0  0  0  0  0
  1  2  2  0
  2  3  1  0
  3  4  1  0
  4  5  2  0
  5  6  1  0
  6  7  2  0
  7  8  1  0
  8  9  1  0
  9 10  3  0
 10 11  1  0
 11 12  3  0
 12 13  1  0
 13 14  2  0
 14 15  1  0
 15 16  2  0
 16 17  1  0
 17 18  2  0
 18 19  1  0
 19 20  2  0
 20 21  1  0
 21 22  2  0
 18 23  1  0
 23 24  2  0
 23 25  1  0
 25 26  1  0
 26 27  2  0
 27 28  1  0
 28 29  2  0
 29 30  1  0
 30 31  2  0
 25 32  1  0
 32 33  2  0
  8 34  2  0
 34 35  1  0
 35 36  2  0
 36 37  1  0
 36 38  1  0
 38 39  2  0
 38 40  1  0
 40 41  1  0
 41 42  2  0
 42 43  1  0
 43 44  2  0
 44 45  1  0
 45 46  2  0
 40  2  1  0
 46 41  1  0
 37  3  2  0
 37  7  1  0
 22 13  1  0
 31 26  1  0
 32 16  1  0
 22 17  1  0
  4 47  1  0
  5 48  1  0
  6 49  1  0
 14 50  1  0
 15 51  1  0
 19 52  1  0
 20 53  1  0
 21 54  1  0
 27 55  1  0
 28 56  1  0
 29 57  1  0
 30 58  1  0
 31 59  1  0
 34 60  1  0
 35 61  1  0
 42 62  1  0
 43 63  1  0
 44 64  1  0
 45 65  1  0
 46 66  1  0
M  END
