
     RDKit          3D

 25 27  0  0  0  0  0  0  0  0999 V2000
   -4.7045   -1.0990    0.4306 N   0  0  0  0  0  0  0  0  0  0  0  0
   -4.1387   -0.1109    0.2658 C   0  0  0  0  0  0  0  0  0  0  0  0
   -3.3865    1.1514    0.0577 C   0  0  0  0  0  0  0  0  0  0  0  0
   -2.1535    1.4426   -0.0550 C   0  0  0  0  0  0  0  0  0  0  0  0
   -0.9434    0.5636   -0.0158 C   0  0  0  0  0  0  0  0  0  0  0  0
   -0.7265   -0.5349    0.7656 C   0  0  0  0  0  0  0  0  0  0  0  0
    0.4406   -1.1706    0.6310 C   0  0  0  0  0  0  0  0  0  0  0  0
    1.3262   -0.6640   -0.2849 C   0  0  0  0  0  0  0  0  0  0  0  0
    2.6722   -1.1411   -0.6449 C   0  0  0  0  0  0  0  0  0  0  0  0
    3.3982   -2.1884   -0.1708 C   0  0  0  0  0  0  0  0  0  0  0  0
    4.6252   -2.3761   -0.7020 C   0  0  0  0  0  0  0  0  0  0  0  0
    5.0325   -1.5009   -1.6678 C   0  0  0  0  0  0  0  0  0  0  0  0
    3.6974   -0.4446   -1.8074 S   0  0  0  0  0  0  0  0  0  0  0  0
    0.4953    0.6789   -0.9218 S   0  0  0  0  0  0  0  0  0  0  0  0
   -2.4016    2.8603   -0.2256 C   0  0  0  0  0  0  0  0  0  0  0  0
   -3.8273    2.5257   -0.0886 C   0  0  0  0  0  0  0  0  0  0  0  0
   -1.5169   -0.8575    1.4761 H   0  0  0  0  0  0  0  0  0  0  0  0
    0.7265   -2.0728    1.2148 H   0  0  0  0  0  0  0  0  0  0  0  0
    2.9679   -2.8429    0.6202 H   0  0  0  0  0  0  0  0  0  0  0  0
    5.3087   -3.1970   -0.3921 H   0  0  0  0  0  0  0  0  0  0  0  0
    5.9954   -1.4937   -2.2149 H   0  0  0  0  0  0  0  0  0  0  0  0
   -2.0819    3.3035   -1.2038 H   0  0  0  0  0  0  0  0  0  0  0  0
   -2.0719    3.4827    0.6517 H   0  0  0  0  0  0  0  0  0  0  0  0
   -4.3602    2.9632    0.7978 H   0  0  0  0  0  0  0  0  0  0  0  0
   -4.3732    2.7223   -1.0489 H   0  0  0  0  0  0  0  0  0  0  0  0
  1  2  3  0
  2  3  1  0
  3  4  2  0
  4  5  1  0
  5  6  2  0
  6  7  1  0
  7  8  2  0
  8  9  1  0
  9 10  2  0
 10 11  1  0
 11 12  2  0
 12 13  1  0
  8 14  1  0
  4 15  1  0
 15 16  1  0
 16  3  1  0
 14  5  1  0
 13  9  1  0
  6 17  1  0
  7 18  1  0
 10 19  1  0
 11 20  1  0
 12 21  1  0
 15 22  1  0
 15 23  1  0
 16 24  1  0
 16 25  1  0
M  END
