
     RDKit          3D

 33 35  0  0  0  0  0  0  0  0999 V2000
    2.1679    3.9526   -0.2212 F   0  0  0  0  0  0  0  0  0  0  0  0
    1.9406    2.9113    0.7881 B   0  0  0  0  0  4  0  0  0  0  0  0
    2.2758    3.4795    2.0989 F   0  0  0  0  0  0  0  0  0  0  0  0
    0.5089    2.5393    0.7194 O   0  0  0  0  0  0  0  0  0  0  0  0
    0.0747    1.2868    0.3842 C   0  0  0  0  0  0  0  0  0  0  0  0
   -1.3114    0.9267    0.3178 C   0  0  0  0  0  0  0  0  0  0  0  0
   -2.4776    0.6314    0.2532 C   0  0  0  0  0  0  0  0  0  0  0  0
   -3.8659    0.3030    0.1873 C   0  0  0  0  0  0  0  0  0  0  0  0
   -4.6890    0.9721   -0.6901 C   0  0  0  0  0  0  0  0  0  0  0  0
   -6.0418    0.6878   -0.7889 C   0  0  0  0  0  0  0  0  0  0  0  0
   -6.5877   -0.2848    0.0039 C   0  0  0  0  0  0  0  0  0  0  0  0
   -5.7663   -0.9714    0.8977 C   0  0  0  0  0  0  0  0  0  0  0  0
   -4.4189   -0.6767    0.9849 C   0  0  0  0  0  0  0  0  0  0  0  0
    1.0111    0.3588    0.1060 C   0  0  0  0  0  0  0  0  0  0  0  0
    2.4220    0.6184    0.1440 C   0  0  0  0  0  0  0  0  0  0  0  0
    3.3886   -0.4386   -0.1705 C   0  0  0  0  0  0  0  0  0  0  0  0
    4.7579   -0.1468   -0.1227 C   0  0  0  0  0  0  0  0  0  0  0  0
    5.7020   -1.1084   -0.4104 C   0  0  0  0  0  0  0  0  0  0  0  0
    5.3583   -2.3977   -0.7578 C   0  0  0  0  0  0  0  0  0  0  0  0
    4.0152   -2.6938   -0.8074 C   0  0  0  0  0  0  0  0  0  0  0  0
    3.0512   -1.7200   -0.5158 C   0  0  0  0  0  0  0  0  0  0  0  0
    2.8313    1.7714    0.4524 O   0  0  0  0  0  3  0  0  0  0  0  0
   -4.2970    1.7485   -1.3351 H   0  0  0  0  0  0  0  0  0  0  0  0
   -6.6364    1.2273   -1.4772 H   0  0  0  0  0  0  0  0  0  0  0  0
   -7.6483   -0.5304   -0.0515 H   0  0  0  0  0  0  0  0  0  0  0  0
   -6.2274   -1.7350    1.5111 H   0  0  0  0  0  0  0  0  0  0  0  0
   -3.8383   -1.2442    1.6964 H   0  0  0  0  0  0  0  0  0  0  0  0
    0.6461   -0.6316   -0.1586 H   0  0  0  0  0  0  0  0  0  0  0  0
    5.0338    0.8536    0.1467 H   0  0  0  0  0  0  0  0  0  0  0  0
    6.7593   -0.8644   -0.3684 H   0  0  0  0  0  0  0  0  0  0  0  0
    6.1336   -3.1182   -0.9749 H   0  0  0  0  0  0  0  0  0  0  0  0
    3.7221   -3.6990   -1.0776 H   0  0  0  0  0  0  0  0  0  0  0  0
    2.0058   -2.0077   -0.5702 H   0  0  0  0  0  0  0  0  0  0  0  0
  1  2  1  0
  2  3  1  0
  2  4  1  0
  4  5  1  0
  5  6  1  0
  6  7  3  0
  7  8  1  0
  8  9  2  0
  9 10  1  0
 10 11  2  0
 11 12  1  0
 12 13  2  0
  5 14  2  0
 14 15  1  0
 15 16  1  0
 16 17  2  0
 17 18  1  0
 18 19  2  0
 19 20  1  0
 20 21  2  0
 15 22  2  0
 22  2  1  0
 13  8  1  0
 21 16  1  0
  9 23  1  0
 10 24  1  0
 11 25  1  0
 12 26  1  0
 13 27  1  0
 14 28  1  0
 17 29  1  0
 18 30  1  0
 19 31  1  0
 20 32  1  0
 21 33  1  0
M  CHG  2   2  -1  22   1
M  END
