
     RDKit          3D

106117  0  0  0  0  0  0  0  0999 V2000
    6.2186   -0.0532    1.2438 C   0  0  0  0  0  0  0  0  0  0  0  0
    5.7053   -1.4341    1.1562 C   0  0  0  0  0  0  0  0  0  0  0  0
    4.6404   -1.8064    0.2812 C   0  0  0  0  0  0  0  0  0  0  0  0
    3.2143   -1.5352    0.3390 C   0  0  0  0  0  0  0  0  0  0  0  0
    2.3906   -2.6710    0.5259 C   0  0  0  0  0  0  0  0  0  0  0  0
    1.0533   -2.1526    0.5213 C   0  0  0  0  0  0  0  0  0  0  0  0
   -0.0959   -2.8327    0.6996 C   0  0  0  0  0  0  0  0  0  0  0  0
   -0.0680   -4.2696    0.9315 C   0  0  0  0  0  0  0  0  0  0  0  0
   -0.7056   -5.0785    0.0124 C   0  0  0  0  0  0  0  0  0  0  0  0
   -1.3433   -4.5365   -1.2303 C   0  0  0  0  0  0  0  0  0  0  0  0
   -0.7265   -6.4447    0.2588 C   0  0  0  0  0  0  0  0  0  0  0  0
   -0.1267   -6.9602    1.3848 C   0  0  0  0  0  0  0  0  0  0  0  0
   -0.1589   -8.4364    1.6455 C   0  0  0  0  0  0  0  0  0  0  0  0
    0.5036   -6.1286    2.2857 C   0  0  0  0  0  0  0  0  0  0  0  0
    0.5357   -4.7462    2.0573 C   0  0  0  0  0  0  0  0  0  0  0  0
    1.1974   -3.8730    3.0690 C   0  0  0  0  0  0  0  0  0  0  0  0
   -1.3752   -2.1548    0.7153 C   0  0  0  0  0  0  0  0  0  0  0  0
   -2.6556   -2.6561    0.9467 C   0  0  0  0  0  0  0  0  0  0  0  0
   -3.5283   -1.5813    0.9183 C   0  0  0  0  0  0  0  0  0  0  0  0
   -4.9778   -1.7291    1.1327 C   0  0  0  0  0  0  0  0  0  0  0  0
   -5.6815   -1.5931   -0.2104 C   0  0  0  0  0  0  0  0  0  0  0  0
   -5.2254   -2.6276   -1.2045 C   0  0  0  0  0  0  0  0  0  0  0  0
   -2.7601   -0.4867    0.6731 C   0  0  0  0  0  0  0  0  0  0  0  0
   -3.2693    0.8737    0.5916 C   0  0  0  0  0  0  0  0  0  0  0  0
   -3.4917    1.5951    1.7396 C   0  0  0  0  0  0  0  0  0  0  0  0
   -3.9976    2.8707    1.6287 C   0  0  0  0  0  0  0  0  0  0  0  0
   -4.2872    3.4401    0.3755 C   0  0  0  0  0  0  0  0  0  0  0  0
   -4.7910    4.7142    0.3259 C   0  0  0  0  0  0  0  0  0  0  0  0
   -5.0783    5.2713   -0.8949 C   0  0  0  0  0  0  0  0  0  0  0  0
   -4.8698    4.5731   -2.0651 C   0  0  0  0  0  0  0  0  0  0  0  0
   -5.1600    5.1071   -3.2958 C   0  0  0  0  0  0  0  0  0  0  0  0
   -4.9456    4.3705   -4.4437 C   0  0  0  0  0  0  0  0  0  0  0  0
   -4.4406    3.0914   -4.4039 C   0  0  0  0  0  0  0  0  0  0  0  0
   -4.1475    2.5527   -3.1573 C   0  0  0  0  0  0  0  0  0  0  0  0
   -3.6429    1.2775   -3.0186 C   0  0  0  0  0  0  0  0  0  0  0  0
   -3.3503    0.7231   -1.7992 C   0  0  0  0  0  0  0  0  0  0  0  0
   -3.5659    1.4604   -0.6433 C   0  0  0  0  0  0  0  0  0  0  0  0
   -4.0709    2.7304   -0.7691 C   0  0  0  0  0  0  0  0  0  0  0  0
   -4.3647    3.2995   -1.9975 C   0  0  0  0  0  0  0  0  0  0  0  0
   -1.4443   -0.8340    0.5484 N   0  0  0  0  0  0  0  0  0  0  0  0
   -0.2185    0.0356    0.2813 B   0  0  0  0  0  4  0  0  0  0  0  0
   -0.1993    1.0282    1.3779 F   0  0  0  0  0  0  0  0  0  0  0  0
   -0.3579    0.7802   -0.9323 F   0  0  0  0  0  0  0  0  0  0  0  0
    1.0540   -0.7888    0.3318 N   0  0  0  0  0  4  0  0  0  0  0  0
    2.3371   -0.4051    0.2228 C   0  0  0  0  0  0  0  0  0  0  0  0
    2.6507    0.9322   -0.2589 C   0  0  0  0  0  0  0  0  0  0  0  0
    2.3496    1.2130   -1.6203 C   0  0  0  0  0  0  0  0  0  0  0  0
    2.8063    2.3277   -2.2606 C   0  0  0  0  0  0  0  0  0  0  0  0
    3.5876    3.2520   -1.6294 C   0  0  0  0  0  0  0  0  0  0  0  0
    4.0045    4.3493   -2.3137 C   0  0  0  0  0  0  0  0  0  0  0  0
    4.7807    5.3170   -1.6996 C   0  0  0  0  0  0  0  0  0  0  0  0
    5.0999    5.1014   -0.3589 C   0  0  0  0  0  0  0  0  0  0  0  0
    5.8340    6.0500    0.3183 C   0  0  0  0  0  0  0  0  0  0  0  0
    6.1244    5.8805    1.6446 C   0  0  0  0  0  0  0  0  0  0  0  0
    5.6951    4.7662    2.3381 C   0  0  0  0  0  0  0  0  0  0  0  0
    4.9638    3.8217    1.6555 C   0  0  0  0  0  0  0  0  0  0  0  0
    4.4862    2.6984    2.3052 C   0  0  0  0  0  0  0  0  0  0  0  0
    3.7357    1.7284    1.6947 C   0  0  0  0  0  0  0  0  0  0  0  0
    3.4258    1.8758    0.3323 C   0  0  0  0  0  0  0  0  0  0  0  0
    3.9014    3.0139   -0.2925 C   0  0  0  0  0  0  0  0  0  0  0  0
    4.6648    3.9688    0.3295 C   0  0  0  0  0  0  0  0  0  0  0  0
    5.9512    0.6296    0.4271 H   0  0  0  0  0  0  0  0  0  0  0  0
    6.0797    0.3873    2.2641 H   0  0  0  0  0  0  0  0  0  0  0  0
    7.3868   -0.0675    1.1347 H   0  0  0  0  0  0  0  0  0  0  0  0
    5.4538   -1.7417    2.2690 H   0  0  0  0  0  0  0  0  0  0  0  0
    6.6037   -2.1550    1.0186 H   0  0  0  0  0  0  0  0  0  0  0  0
    4.8064   -2.9190   -0.0274 H   0  0  0  0  0  0  0  0  0  0  0  0
    4.9380   -1.3629   -0.8200 H   0  0  0  0  0  0  0  0  0  0  0  0
    2.7269   -3.6626    0.6410 H   0  0  0  0  0  0  0  0  0  0  0  0
   -2.4363   -4.6934   -1.1310 H   0  0  0  0  0  0  0  0  0  0  0  0
   -0.9842   -5.1109   -2.1258 H   0  0  0  0  0  0  0  0  0  0  0  0
   -1.1705   -3.4532   -1.3557 H   0  0  0  0  0  0  0  0  0  0  0  0
   -1.2232   -7.0693   -0.4558 H   0  0  0  0  0  0  0  0  0  0  0  0
   -1.0400   -8.8369    1.0944 H   0  0  0  0  0  0  0  0  0  0  0  0
   -0.1968   -8.6195    2.7176 H   0  0  0  0  0  0  0  0  0  0  0  0
    0.7994   -8.8381    1.2272 H   0  0  0  0  0  0  0  0  0  0  0  0
    0.9831   -6.5150    3.1828 H   0  0  0  0  0  0  0  0  0  0  0  0
    0.8526   -4.1666    4.1065 H   0  0  0  0  0  0  0  0  0  0  0  0
    2.2852   -4.0598    3.0350 H   0  0  0  0  0  0  0  0  0  0  0  0
    0.9134   -2.8252    2.9709 H   0  0  0  0  0  0  0  0  0  0  0  0
   -2.8729   -3.6946    1.1117 H   0  0  0  0  0  0  0  0  0  0  0  0
   -5.1877   -2.7311    1.5510 H   0  0  0  0  0  0  0  0  0  0  0  0
   -5.3838   -1.0089    1.8678 H   0  0  0  0  0  0  0  0  0  0  0  0
   -5.6363   -0.5737   -0.6178 H   0  0  0  0  0  0  0  0  0  0  0  0
   -6.7819   -1.7748   -0.0194 H   0  0  0  0  0  0  0  0  0  0  0  0
   -4.3957   -2.2370   -1.8575 H   0  0  0  0  0  0  0  0  0  0  0  0
   -4.9472   -3.5965   -0.7508 H   0  0  0  0  0  0  0  0  0  0  0  0
   -6.1141   -2.8687   -1.8605 H   0  0  0  0  0  0  0  0  0  0  0  0
   -3.2788    1.1883    2.7182 H   0  0  0  0  0  0  0  0  0  0  0  0
   -4.1793    3.4598    2.5341 H   0  0  0  0  0  0  0  0  0  0  0  0
   -4.9429    5.2351    1.2719 H   0  0  0  0  0  0  0  0  0  0  0  0
   -5.4797    6.2916   -0.9315 H   0  0  0  0  0  0  0  0  0  0  0  0
   -5.5646    6.1281   -3.3444 H   0  0  0  0  0  0  0  0  0  0  0  0
   -5.1851    4.8127   -5.4126 H   0  0  0  0  0  0  0  0  0  0  0  0
   -4.2595    2.4868   -5.2608 H   0  0  0  0  0  0  0  0  0  0  0  0
   -3.4795    0.7080   -3.9437 H   0  0  0  0  0  0  0  0  0  0  0  0
   -2.9498   -0.2873   -1.6941 H   0  0  0  0  0  0  0  0  0  0  0  0
    1.7742    0.4884   -2.1492 H   0  0  0  0  0  0  0  0  0  0  0  0
    2.5270    2.4579   -3.2951 H   0  0  0  0  0  0  0  0  0  0  0  0
    3.7505    4.5195   -3.3671 H   0  0  0  0  0  0  0  0  0  0  0  0
    5.1103    6.1846   -2.2461 H   0  0  0  0  0  0  0  0  0  0  0  0
    6.1850    6.9333   -0.1956 H   0  0  0  0  0  0  0  0  0  0  0  0
    6.7061    6.6174    2.2059 H   0  0  0  0  0  0  0  0  0  0  0  0
    5.9229    4.6245    3.3939 H   0  0  0  0  0  0  0  0  0  0  0  0
    4.7340    2.6003    3.3702 H   0  0  0  0  0  0  0  0  0  0  0  0
    3.3608    0.8403    2.2051 H   0  0  0  0  0  0  0  0  0  0  0  0
  1  2  1  0
  2  3  1  0
  3  4  1  0
  4  5  2  0
  5  6  1  0
  6  7  2  0
  7  8  1  0
  8  9  2  0
  9 10  1  0
  9 11  1  0
 11 12  2  0
 12 13  1  0
 12 14  1  0
 14 15  2  0
 15 16  1  0
  7 17  1  0
 17 18  2  0
 18 19  1  0
 19 20  1  0
 20 21  1  0
 21 22  1  0
 19 23  2  0
 23 24  1  0
 24 25  2  0
 25 26  1  0
 26 27  2  0
 27 28  1  0
 28 29  2  0
 29 30  1  0
 30 31  2  0
 31 32  1  0
 32 33  2  0
 33 34  1  0
 34 35  2  0
 35 36  1  0
 36 37  2  0
 37 38  1  0
 38 39  2  0
 23 40  1  0
 40 41  1  0
 41 42  1  0
 41 43  1  0
 41 44  1  0
 44 45  2  0
 45 46  1  0
 46 47  2  0
 47 48  1  0
 48 49  2  0
 49 50  1  0
 50 51  2  0
 51 52  1  0
 52 53  2  0
 53 54  1  0
 54 55  2  0
 55 56  1  0
 56 57  2  0
 57 58  1  0
 58 59  2  0
 59 60  1  0
 60 61  2  0
 45  4  1  0
 59 46  1  0
 44  6  1  0
 60 49  1  0
 15  8  1  0
 40 17  1  0
 61 52  1  0
 37 24  1  0
 61 56  1  0
 38 27  1  0
 39 30  1  0
 39 34  1  0
  1 62  1  0
  1 63  1  0
  1 64  1  0
  2 65  1  0
  2 66  1  0
  3 67  1  0
  3 68  1  0
  5 69  1  0
 10 70  1  0
 10 71  1  0
 10 72  1  0
 11 73  1  0
 13 74  1  0
 13 75  1  0
 13 76  1  0
 14 77  1  0
 16 78  1  0
 16 79  1  0
 16 80  1  0
 18 81  1  0
 20 82  1  0
 20 83  1  0
 21 84  1  0
 21 85  1  0
 22 86  1  0
 22 87  1  0
 22 88  1  0
 25 89  1  0
 26 90  1  0
 28 91  1  0
 29 92  1  0
 31 93  1  0
 32 94  1  0
 33 95  1  0
 35 96  1  0
 36 97  1  0
 47 98  1  0
 48 99  1  0
 50100  1  0
 51101  1  0
 53102  1  0
 54103  1  0
 55104  1  0
 57105  1  0
 58106  1  0
M  CHG  2  41  -1  44   1
M  END
