
     RDKit          3D

 39 40  0  0  0  0  0  0  0  0999 V2000
    0.3649   -3.2254    0.4531 C   0  0  0  0  0  0  0  0  0  0  0  0
   -0.6916   -2.1832    0.2944 C   0  0  0  0  0  0  0  0  0  0  0  0
   -2.0028   -2.6050    0.2216 C   0  0  0  0  0  0  0  0  0  0  0  0
   -2.9742   -1.6535    0.0761 C   0  0  0  0  0  0  0  0  0  0  0  0
   -4.3002   -2.0769    0.0022 O   0  0  0  0  0  0  0  0  0  0  0  0
   -2.7012   -0.3055    0.0000 C   0  0  0  0  0  0  0  0  0  0  0  0
   -3.8193    0.6324   -0.1562 C   0  0  0  0  0  0  0  0  0  0  0  0
   -3.3925    2.0631   -0.2231 C   0  0  0  0  0  0  0  0  0  0  0  0
   -4.6346    0.3409   -1.4098 C   0  0  0  0  0  0  0  0  0  0  0  0
   -1.3735    0.0683    0.0776 C   0  0  0  0  0  0  0  0  0  0  0  0
   -0.3549   -0.8401    0.2236 C   0  0  0  0  0  0  0  0  0  0  0  0
    1.0061   -0.5050    0.3066 N   0  0  0  0  0  0  0  0  0  0  0  0
    1.4862    0.6025   -0.1417 C   0  0  0  0  0  0  0  0  0  0  0  0
    2.9191    0.9191   -0.0368 C   0  0  0  0  0  0  0  0  0  0  0  0
    3.4282    2.1047   -0.5177 C   0  0  0  0  0  0  0  0  0  0  0  0
    4.7667    2.4222   -0.4302 C   0  0  0  0  0  0  0  0  0  0  0  0
    5.6405    1.5520    0.1470 C   0  0  0  0  0  0  0  0  0  0  0  0
    7.0136    1.8225    0.2634 O   0  0  0  0  0  0  0  0  0  0  0  0
    5.1695    0.3559    0.6397 C   0  0  0  0  0  0  0  0  0  0  0  0
    3.8084    0.0432    0.5459 C   0  0  0  0  0  0  0  0  0  0  0  0
   -0.0259   -4.2149    0.1667 H   0  0  0  0  0  0  0  0  0  0  0  0
    1.2231   -3.0184   -0.2307 H   0  0  0  0  0  0  0  0  0  0  0  0
    0.6971   -3.1784    1.5149 H   0  0  0  0  0  0  0  0  0  0  0  0
   -2.2233   -3.6770    0.2818 H   0  0  0  0  0  0  0  0  0  0  0  0
   -4.5712   -3.0421    0.0508 H   0  0  0  0  0  0  0  0  0  0  0  0
   -4.4906    0.5203    0.7286 H   0  0  0  0  0  0  0  0  0  0  0  0
   -2.9945    2.4395    0.7416 H   0  0  0  0  0  0  0  0  0  0  0  0
   -4.3116    2.6729   -0.4296 H   0  0  0  0  0  0  0  0  0  0  0  0
   -2.6823    2.2675   -1.0281 H   0  0  0  0  0  0  0  0  0  0  0  0
   -5.7063    0.2594   -1.1515 H   0  0  0  0  0  0  0  0  0  0  0  0
   -4.2383   -0.6213   -1.8254 H   0  0  0  0  0  0  0  0  0  0  0  0
   -4.5522    1.1653   -2.1475 H   0  0  0  0  0  0  0  0  0  0  0  0
   -1.1423    1.1142    0.0201 H   0  0  0  0  0  0  0  0  0  0  0  0
    0.7934    1.2917   -0.5990 H   0  0  0  0  0  0  0  0  0  0  0  0
    2.7326    2.8175   -0.9869 H   0  0  0  0  0  0  0  0  0  0  0  0
    5.1691    3.3633   -0.8122 H   0  0  0  0  0  0  0  0  0  0  0  0
    7.6055    1.5238   -0.5001 H   0  0  0  0  0  0  0  0  0  0  0  0
    5.8729   -0.3235    1.0943 H   0  0  0  0  0  0  0  0  0  0  0  0
    3.4864   -0.8919    0.9395 H   0  0  0  0  0  0  0  0  0  0  0  0
  1  2  1  0
  2  3  2  0
  3  4  1  0
  4  5  1  0
  4  6  2  0
  6  7  1  0
  7  8  1  0
  7  9  1  0
  6 10  1  0
 10 11  2  0
 11 12  1  0
 12 13  2  0
 13 14  1  0
 14 15  2  0
 15 16  1  0
 16 17  2  0
 17 18  1  0
 17 19  1  0
 19 20  2  0
 11  2  1  0
 20 14  1  0
  1 21  1  0
  1 22  1  0
  1 23  1  0
  3 24  1  0
  5 25  1  0
  7 26  1  0
  8 27  1  0
  8 28  1  0
  8 29  1  0
  9 30  1  0
  9 31  1  0
  9 32  1  0
 10 33  1  0
 13 34  1  0
 15 35  1  0
 16 36  1  0
 18 37  1  0
 19 38  1  0
 20 39  1  0
M  END
