
     RDKit          3D

 76 82  0  0  0  0  0  0  0  0999 V2000
   -8.7946    0.6695    1.6930 O   0  0  0  0  0  0  0  0  0  0  0  0
   -9.7084    0.6496    0.8439 C   0  0  0  0  0  0  0  0  0  0  0  0
  -11.0173    0.3090    1.2243 O   0  0  0  0  0  0  0  0  0  0  0  0
   -9.3972    0.9962   -0.5886 C   0  0  0  0  0  0  0  0  0  0  0  0
   -8.0368    1.2706   -0.6923 O   0  0  0  0  0  0  0  0  0  0  0  0
   -7.0653    0.3439   -0.4235 C   0  0  0  0  0  0  0  0  0  0  0  0
   -7.3548   -0.9525   -0.0582 C   0  0  0  0  0  0  0  0  0  0  0  0
   -6.3740   -1.8997    0.2241 C   0  0  0  0  0  0  0  0  0  0  0  0
   -5.0607   -1.4716    0.1197 C   0  0  0  0  0  0  0  0  0  0  0  0
   -4.7429   -0.1949   -0.2402 C   0  0  0  0  0  0  0  0  0  0  0  0
   -3.2904    0.1421   -0.2674 C   0  0  0  0  0  0  0  0  0  0  0  0
   -2.9298    0.9182    0.8124 C   0  0  0  0  0  0  0  0  0  0  0  0
   -1.8940    1.7813    0.5846 N   0  0  0  0  0  0  0  0  0  0  0  0
   -1.3794    2.1847    1.7686 C   0  0  0  0  0  0  0  0  0  0  0  0
   -0.0190    2.4840    1.8979 C   0  0  0  0  0  0  0  0  0  0  0  0
    1.0605    2.0257    1.1478 C   0  0  0  0  0  0  0  0  0  0  0  0
    1.9269    2.9723    0.5361 C   0  0  0  0  0  0  0  0  0  0  0  0
    2.8819    2.2833   -0.1503 C   0  0  0  0  0  0  0  0  0  0  0  0
    2.5705    0.9132    0.0628 C   0  0  0  0  0  0  0  0  0  0  0  0
    1.4879    0.7925    0.8382 N   0  0  0  0  0  0  0  0  0  0  0  0
    3.3893   -0.0619   -0.5501 C   0  0  0  0  0  0  0  0  0  0  0  0
    4.8813    0.1256   -0.4874 C   0  0  0  0  0  0  0  0  0  0  0  0
    5.5758    0.7628   -1.4686 C   0  0  0  0  0  0  0  0  0  0  0  0
    6.9607    0.9236   -1.3273 C   0  0  0  0  0  0  0  0  0  0  0  0
    7.6448    0.4647   -0.2409 C   0  0  0  0  0  0  0  0  0  0  0  0
    6.9402   -0.1824    0.7556 C   0  0  0  0  0  0  0  0  0  0  0  0
    7.5734   -0.6738    1.8918 O   0  0  0  0  0  0  0  0  0  0  0  0
    8.9631   -0.5232    2.0691 C   0  0  0  0  0  0  0  0  0  0  0  0
    9.3586   -1.1383    3.3765 C   0  0  0  0  0  0  0  0  0  0  0  0
   10.5791   -1.1072    3.7261 O   0  0  0  0  0  0  0  0  0  0  0  0
    8.3960   -1.7213    4.1701 O   0  0  0  0  0  0  0  0  0  0  0  0
    5.5642   -0.3416    0.6150 C   0  0  0  0  0  0  0  0  0  0  0  0
    3.0479   -1.1772   -1.2625 C   0  0  0  0  0  0  0  0  0  0  0  0
    1.7454   -1.5974   -1.1816 N   0  0  0  0  0  0  0  0  0  0  0  0
    1.4682   -1.9365   -2.4985 C   0  0  0  0  0  0  0  0  0  0  0  0
    0.3788   -1.3952   -3.1196 C   0  0  0  0  0  0  0  0  0  0  0  0
   -0.8589   -0.9988   -2.5705 C   0  0  0  0  0  0  0  0  0  0  0  0
   -1.9926   -0.9180   -3.4016 C   0  0  0  0  0  0  0  0  0  0  0  0
   -3.0115   -0.4843   -2.5976 C   0  0  0  0  0  0  0  0  0  0  0  0
   -2.4645   -0.3188   -1.3134 C   0  0  0  0  0  0  0  0  0  0  0  0
   -1.1619   -0.6357   -1.3121 N   0  0  0  0  0  0  0  0  0  0  0  0
    2.5792   -2.8647   -2.8054 C   0  0  0  0  0  0  0  0  0  0  0  0
    3.7657   -2.1279   -2.1834 C   0  0  0  0  0  0  0  0  0  0  0  0
   -2.5348    2.2205    2.6980 C   0  0  0  0  0  0  0  0  0  0  0  0
   -3.3659    1.0688    2.2128 C   0  0  0  0  0  0  0  0  0  0  0  0
   -5.7109    0.7049   -0.5105 C   0  0  0  0  0  0  0  0  0  0  0  0
  -11.1123    0.0080    2.2032 H   0  0  0  0  0  0  0  0  0  0  0  0
   -9.7492    0.1751   -1.2405 H   0  0  0  0  0  0  0  0  0  0  0  0
  -10.0334    1.8784   -0.8470 H   0  0  0  0  0  0  0  0  0  0  0  0
   -8.3705   -1.3416    0.0205 H   0  0  0  0  0  0  0  0  0  0  0  0
   -6.6280   -2.9139    0.5104 H   0  0  0  0  0  0  0  0  0  0  0  0
   -4.3018   -2.2357    0.3475 H   0  0  0  0  0  0  0  0  0  0  0  0
    0.1184    3.2273    2.7325 H   0  0  0  0  0  0  0  0  0  0  0  0
    1.8741    4.0812    0.5963 H   0  0  0  0  0  0  0  0  0  0  0  0
    3.7132    2.7106   -0.7324 H   0  0  0  0  0  0  0  0  0  0  0  0
    1.0320   -0.1687    1.1979 H   0  0  0  0  0  0  0  0  0  0  0  0
    5.0485    1.1256   -2.3174 H   0  0  0  0  0  0  0  0  0  0  0  0
    7.5179    1.4322   -2.1104 H   0  0  0  0  0  0  0  0  0  0  0  0
    8.7163    0.5968   -0.1444 H   0  0  0  0  0  0  0  0  0  0  0  0
    9.4582   -1.0346    1.2120 H   0  0  0  0  0  0  0  0  0  0  0  0
    9.2443    0.5719    2.0560 H   0  0  0  0  0  0  0  0  0  0  0  0
    8.5538   -1.6588    5.1895 H   0  0  0  0  0  0  0  0  0  0  0  0
    5.0544   -0.8537    1.4215 H   0  0  0  0  0  0  0  0  0  0  0  0
    0.5532   -1.2617   -4.2196 H   0  0  0  0  0  0  0  0  0  0  0  0
   -2.0775   -1.1498   -4.4785 H   0  0  0  0  0  0  0  0  0  0  0  0
   -4.0509   -0.3114   -2.9334 H   0  0  0  0  0  0  0  0  0  0  0  0
   -0.4767   -0.6150   -0.4407 H   0  0  0  0  0  0  0  0  0  0  0  0
    2.6996   -3.0248   -3.8838 H   0  0  0  0  0  0  0  0  0  0  0  0
    2.3670   -3.8046   -2.2489 H   0  0  0  0  0  0  0  0  0  0  0  0
    4.3232   -2.8282   -1.5722 H   0  0  0  0  0  0  0  0  0  0  0  0
    4.3214   -1.5836   -2.9602 H   0  0  0  0  0  0  0  0  0  0  0  0
   -2.1675    2.0551    3.7396 H   0  0  0  0  0  0  0  0  0  0  0  0
   -3.1044    3.1698    2.6127 H   0  0  0  0  0  0  0  0  0  0  0  0
   -4.4395    1.3945    2.2575 H   0  0  0  0  0  0  0  0  0  0  0  0
   -3.2080    0.1450    2.8106 H   0  0  0  0  0  0  0  0  0  0  0  0
   -5.4500    1.7179   -0.7955 H   0  0  0  0  0  0  0  0  0  0  0  0
  1  2  2  0
  2  3  1  0
  2  4  1  0
  4  5  1  0
  5  6  1  0
  6  7  2  0
  7  8  1  0
  8  9  2  0
  9 10  1  0
 10 11  1  0
 11 12  1  0
 12 13  2  0
 13 14  1  0
 14 15  2  0
 15 16  1  0
 16 17  2  0
 17 18  1  0
 18 19  2  0
 19 20  1  0
 19 21  1  0
 21 22  1  0
 22 23  2  0
 23 24  1  0
 24 25  2  0
 25 26  1  0
 26 27  1  0
 27 28  1  0
 28 29  1  0
 29 30  2  0
 29 31  1  0
 26 32  2  0
 21 33  2  0
 33 34  1  0
 34 35  2  0
 35 36  1  0
 36 37  2  0
 37 38  1  0
 38 39  2  0
 39 40  1  0
 40 41  1  0
 35 42  1  0
 42 43  1  0
 14 44  1  0
 44 45  1  0
 10 46  2  0
 46  6  1  0
 40 11  2  0
 45 12  1  0
 20 16  1  0
 32 22  1  0
 43 33  1  0
 41 37  1  0
  3 47  1  0
  4 48  1  0
  4 49  1  0
  7 50  1  0
  8 51  1  0
  9 52  1  0
 15 53  1  0
 17 54  1  0
 18 55  1  0
 20 56  1  0
 23 57  1  0
 24 58  1  0
 25 59  1  0
 28 60  1  0
 28 61  1  0
 31 62  1  0
 32 63  1  0
 36 64  1  0
 38 65  1  0
 39 66  1  0
 41 67  1  0
 42 68  1  0
 42 69  1  0
 43 70  1  0
 43 71  1  0
 44 72  1  0
 44 73  1  0
 45 74  1  0
 45 75  1  0
 46 76  1  0
M  END
