
     RDKit          3D

 57 64  0  0  0  0  0  0  0  0999 V2000
   -7.3033   -1.8889   -1.1018 O   0  0  0  0  0  0  0  0  0  0  0  0
   -6.3087   -1.8654   -0.3369 C   0  0  0  0  0  0  0  0  0  0  0  0
   -6.3474   -2.5702    0.8533 O   0  0  0  0  0  0  0  0  0  0  0  0
   -5.2371   -2.5280    1.6790 C   0  0  0  0  0  0  0  0  0  0  0  0
   -5.1949   -3.1406    2.7747 O   0  0  0  0  0  0  0  0  0  0  0  0
   -4.0586   -1.7489    1.2832 C   0  0  0  0  0  0  0  0  0  0  0  0
   -2.9520   -1.7149    2.1073 C   0  0  0  0  0  0  0  0  0  0  0  0
   -1.8118   -0.9814    1.7498 C   0  0  0  0  0  0  0  0  0  0  0  0
   -1.7886   -0.2887    0.5718 C   0  0  0  0  0  0  0  0  0  0  0  0
   -0.5815    0.4462    0.2441 N   0  0  0  0  0  0  0  0  0  0  0  0
   -0.7374    1.8507    0.1871 C   0  0  0  0  0  0  0  0  0  0  0  0
   -0.2774    2.6907   -0.7979 C   0  0  0  0  0  0  0  0  0  0  0  0
   -0.4838    4.0398   -0.7553 C   0  0  0  0  0  0  0  0  0  0  0  0
   -1.1779    4.5735    0.3144 C   0  0  0  0  0  0  0  0  0  0  0  0
   -1.6607    3.7882    1.3258 C   0  0  0  0  0  0  0  0  0  0  0  0
   -1.4360    2.4322    1.2534 C   0  0  0  0  0  0  0  0  0  0  0  0
    0.5305   -0.3486   -0.0767 C   0  0  0  0  0  0  0  0  0  0  0  0
    0.2935   -1.6455   -0.5610 C   0  0  0  0  0  0  0  0  0  0  0  0
    1.2866   -2.5307   -0.8899 C   0  0  0  0  0  0  0  0  0  0  0  0
    2.5838   -2.1016   -0.7265 C   0  0  0  0  0  0  0  0  0  0  0  0
    3.5837   -2.9973   -1.0570 C   0  0  0  0  0  0  0  0  0  0  0  0
    4.8929   -2.5858   -0.8919 C   0  0  0  0  0  0  0  0  0  0  0  0
    5.2142   -1.3295   -0.4142 C   0  0  0  0  0  0  0  0  0  0  0  0
    6.5223   -0.9279   -0.2271 C   0  0  0  0  0  0  0  0  0  0  0  0
    6.8791    0.3106    0.2702 C   0  0  0  0  0  0  0  0  0  0  0  0
    5.8667    1.1851    0.5943 C   0  0  0  0  0  0  0  0  0  0  0  0
    4.5442    0.7977    0.4117 C   0  0  0  0  0  0  0  0  0  0  0  0
    3.5124    1.6419    0.7401 C   0  0  0  0  0  0  0  0  0  0  0  0
    2.1713    1.2634    0.5737 C   0  0  0  0  0  0  0  0  0  0  0  0
    1.8395    0.0294    0.0732 C   0  0  0  0  0  0  0  0  0  0  0  0
    2.8907   -0.8393   -0.2502 C   0  0  0  0  0  0  0  0  0  0  0  0
    4.1985   -0.4376   -0.0858 C   0  0  0  0  0  0  0  0  0  0  0  0
   -2.8526   -0.3009   -0.2592 C   0  0  0  0  0  0  0  0  0  0  0  0
   -2.9096    0.3545   -1.4651 C   0  0  0  0  0  0  0  0  0  0  0  0
   -4.0218    0.3038   -2.2832 C   0  0  0  0  0  0  0  0  0  0  0  0
   -5.1391   -0.4112   -1.9309 C   0  0  0  0  0  0  0  0  0  0  0  0
   -5.1099   -1.0908   -0.7088 C   0  0  0  0  0  0  0  0  0  0  0  0
   -4.0007   -1.0376    0.0980 C   0  0  0  0  0  0  0  0  0  0  0  0
   -2.9908   -2.2641    3.0254 H   0  0  0  0  0  0  0  0  0  0  0  0
   -0.9928   -1.0129    2.4571 H   0  0  0  0  0  0  0  0  0  0  0  0
    0.2609    2.2635   -1.6243 H   0  0  0  0  0  0  0  0  0  0  0  0
   -0.1036    4.6946   -1.5602 H   0  0  0  0  0  0  0  0  0  0  0  0
   -1.3301    5.6594    0.3246 H   0  0  0  0  0  0  0  0  0  0  0  0
   -2.2008    4.2006    2.1588 H   0  0  0  0  0  0  0  0  0  0  0  0
   -1.8143    1.7909    2.0520 H   0  0  0  0  0  0  0  0  0  0  0  0
   -0.7314   -1.9366   -0.6741 H   0  0  0  0  0  0  0  0  0  0  0  0
    1.0294   -3.5147   -1.2585 H   0  0  0  0  0  0  0  0  0  0  0  0
    3.3372   -3.9835   -1.4311 H   0  0  0  0  0  0  0  0  0  0  0  0
    5.7153   -3.2414   -1.1341 H   0  0  0  0  0  0  0  0  0  0  0  0
    7.3055   -1.6294   -0.4874 H   0  0  0  0  0  0  0  0  0  0  0  0
    7.9349    0.5675    0.3944 H   0  0  0  0  0  0  0  0  0  0  0  0
    6.0998    2.1683    0.9890 H   0  0  0  0  0  0  0  0  0  0  0  0
    3.7503    2.6298    1.1398 H   0  0  0  0  0  0  0  0  0  0  0  0
    1.4281    1.9406    0.9071 H   0  0  0  0  0  0  0  0  0  0  0  0
   -2.0552    0.9020   -1.7753 H   0  0  0  0  0  0  0  0  0  0  0  0
   -4.0257    0.8404   -3.2350 H   0  0  0  0  0  0  0  0  0  0  0  0
   -6.0358   -0.4715   -2.5538 H   0  0  0  0  0  0  0  0  0  0  0  0
  1  2  2  0
  2  3  1  0
  3  4  1  0
  4  5  2  0
  4  6  1  0
  6  7  1  0
  7  8  2  0
  8  9  1  0
  9 10  1  0
 10 11  1  0
 11 12  2  0
 12 13  1  0
 13 14  2  0
 14 15  1  0
 15 16  2  0
 10 17  1  0
 17 18  2  0
 18 19  1  0
 19 20  2  0
 20 21  1  0
 21 22  2  0
 22 23  1  0
 23 24  2  0
 24 25  1  0
 25 26  2  0
 26 27  1  0
 27 28  2  0
 28 29  1  0
 29 30  2  0
 30 31  1  0
 31 32  2  0
  9 33  2  0
 33 34  1  0
 34 35  2  0
 35 36  1  0
 36 37  2  0
 37 38  1  0
 37  2  1  0
 38  6  2  0
 16 11  1  0
 30 17  1  0
 38 33  1  0
 31 20  1  0
 32 23  1  0
 32 27  1  0
  7 39  1  0
  8 40  1  0
 12 41  1  0
 13 42  1  0
 14 43  1  0
 15 44  1  0
 16 45  1  0
 18 46  1  0
 19 47  1  0
 21 48  1  0
 22 49  1  0
 24 50  1  0
 25 51  1  0
 26 52  1  0
 28 53  1  0
 29 54  1  0
 34 55  1  0
 35 56  1  0
 36 57  1  0
M  END
