
     RDKit          3D

 66 70  0  0  0  0  0  0  0  0999 V2000
    5.7520   -4.7426   -2.7039 C   0  0  0  0  0  0  0  0  0  0  0  0
    4.7576   -3.8133   -3.1385 O   0  0  0  0  0  0  0  0  0  0  0  0
    4.2131   -2.8854   -2.2673 C   0  0  0  0  0  0  0  0  0  0  0  0
    3.2713   -2.0213   -2.7213 C   0  0  0  0  0  0  0  0  0  0  0  0
    2.7018   -1.0856   -1.9033 C   0  0  0  0  0  0  0  0  0  0  0  0
    3.0584   -0.9622   -0.5396 C   0  0  0  0  0  0  0  0  0  0  0  0
    2.4045    0.0182    0.2401 N   0  0  0  0  0  0  0  0  0  0  0  0
    2.9573    0.9519    1.1386 C   0  0  0  0  0  0  0  0  0  0  0  0
    2.4984    2.2834    1.0330 C   0  0  0  0  0  0  0  0  0  0  0  0
    2.9402    3.2815    1.8554 C   0  0  0  0  0  0  0  0  0  0  0  0
    3.8639    3.0472    2.8412 C   0  0  0  0  0  0  0  0  0  0  0  0
    4.3499    4.1139    3.7356 C   0  0  0  0  0  0  0  0  0  0  0  0
    4.3278    1.7638    2.9683 C   0  0  0  0  0  0  0  0  0  0  0  0
    3.8710    0.7442    2.1223 C   0  0  0  0  0  0  0  0  0  0  0  0
    0.9521    0.0946    0.1238 C   0  0  0  0  0  0  0  0  0  0  0  0
    0.0386    0.7423   -0.6802 C   0  0  0  0  0  0  0  0  0  0  0  0
    0.1789    1.6306   -1.7690 O   0  0  0  0  0  1  0  0  0  0  0  0
   -1.0148    0.1879   -0.0155 C   0  0  0  0  0  0  0  0  0  0  0  0
   -2.3300    0.2795   -0.1763 N   0  0  0  0  0  4  0  0  0  0  0  0
   -2.8374    1.0880   -1.2147 C   0  0  0  0  0  0  0  0  0  0  0  0
   -2.3903    2.4311   -1.2156 C   0  0  0  0  0  0  0  0  0  0  0  0
   -2.7910    3.2621   -2.2117 C   0  0  0  0  0  0  0  0  0  0  0  0
   -3.6214    2.8794   -3.2428 C   0  0  0  0  0  0  0  0  0  0  0  0
   -4.0204    3.8605   -4.3095 C   0  0  0  0  0  0  0  0  0  0  0  0
   -4.0577    1.5900   -3.2509 C   0  0  0  0  0  0  0  0  0  0  0  0
   -3.6603    0.7074   -2.2359 C   0  0  0  0  0  0  0  0  0  0  0  0
   -3.0499   -0.5702    0.6989 C   0  0  0  0  0  0  0  0  0  0  0  0
   -3.9537   -1.4765    0.3069 C   0  0  0  0  0  0  0  0  0  0  0  0
   -4.6747   -2.2285    1.2521 C   0  0  0  0  0  0  0  0  0  0  0  0
   -4.4953   -2.0794    2.5971 C   0  0  0  0  0  0  0  0  0  0  0  0
   -5.2131   -2.8291    3.5371 O   0  0  0  0  0  0  0  0  0  0  0  0
   -6.1561   -3.7725    3.0624 C   0  0  0  0  0  0  0  0  0  0  0  0
   -3.5643   -1.1463    3.0030 C   0  0  0  0  0  0  0  0  0  0  0  0
   -2.8527   -0.4030    2.0959 C   0  0  0  0  0  0  0  0  0  0  0  0
   -0.1156   -0.4616    0.7882 C   0  0  0  0  0  0  0  0  0  0  0  0
   -0.1894   -1.2544    1.7511 O   0  0  0  0  0  0  0  0  0  0  0  0
    4.0071   -1.8488   -0.1226 C   0  0  0  0  0  0  0  0  0  0  0  0
    4.5921   -2.8076   -0.9578 C   0  0  0  0  0  0  0  0  0  0  0  0
    6.1369   -5.2462   -3.6082 H   0  0  0  0  0  0  0  0  0  0  0  0
    5.2497   -5.4904   -2.0501 H   0  0  0  0  0  0  0  0  0  0  0  0
    6.4992   -4.1886   -2.1326 H   0  0  0  0  0  0  0  0  0  0  0  0
    2.9351   -2.0447   -3.7610 H   0  0  0  0  0  0  0  0  0  0  0  0
    1.9564   -0.4022   -2.2642 H   0  0  0  0  0  0  0  0  0  0  0  0
    1.7744    2.5065    0.2728 H   0  0  0  0  0  0  0  0  0  0  0  0
    2.5738    4.2943    1.7552 H   0  0  0  0  0  0  0  0  0  0  0  0
    4.8714    3.6811    4.6037 H   0  0  0  0  0  0  0  0  0  0  0  0
    3.5294    4.7786    4.0909 H   0  0  0  0  0  0  0  0  0  0  0  0
    5.0540    4.7690    3.1809 H   0  0  0  0  0  0  0  0  0  0  0  0
    5.0532    1.5668    3.7383 H   0  0  0  0  0  0  0  0  0  0  0  0
    4.2819   -0.2150    2.3114 H   0  0  0  0  0  0  0  0  0  0  0  0
   -1.7525    2.7436   -0.3858 H   0  0  0  0  0  0  0  0  0  0  0  0
   -2.4248    4.2874   -2.1774 H   0  0  0  0  0  0  0  0  0  0  0  0
   -4.1589    4.8367   -3.7717 H   0  0  0  0  0  0  0  0  0  0  0  0
   -4.9487    3.5536   -4.8103 H   0  0  0  0  0  0  0  0  0  0  0  0
   -3.1485    3.9431   -5.0017 H   0  0  0  0  0  0  0  0  0  0  0  0
   -4.7048    1.2017   -4.0092 H   0  0  0  0  0  0  0  0  0  0  0  0
   -4.0305   -0.2888   -2.3202 H   0  0  0  0  0  0  0  0  0  0  0  0
   -4.1788   -1.7104   -0.7304 H   0  0  0  0  0  0  0  0  0  0  0  0
   -5.4110   -2.9651    0.9039 H   0  0  0  0  0  0  0  0  0  0  0  0
   -6.3657   -4.4525    3.9320 H   0  0  0  0  0  0  0  0  0  0  0  0
   -7.0753   -3.3113    2.6713 H   0  0  0  0  0  0  0  0  0  0  0  0
   -5.6326   -4.4177    2.3190 H   0  0  0  0  0  0  0  0  0  0  0  0
   -3.3912   -0.9972    4.0661 H   0  0  0  0  0  0  0  0  0  0  0  0
   -2.1355    0.3571    2.3918 H   0  0  0  0  0  0  0  0  0  0  0  0
    4.3544   -1.8709    0.8890 H   0  0  0  0  0  0  0  0  0  0  0  0
    5.3410   -3.4877   -0.5780 H   0  0  0  0  0  0  0  0  0  0  0  0
  1  2  1  0
  2  3  1  0
  3  4  2  0
  4  5  1  0
  5  6  2  0
  6  7  1  0
  7  8  1  0
  8  9  2  0
  9 10  1  0
 10 11  2  0
 11 12  1  0
 11 13  1  0
 13 14  2  0
  7 15  1  0
 15 16  2  0
 16 17  1  0
 16 18  1  0
 18 19  2  0
 19 20  1  0
 20 21  2  0
 21 22  1  0
 22 23  2  0
 23 24  1  0
 23 25  1  0
 25 26  2  0
 19 27  1  0
 27 28  2  0
 28 29  1  0
 29 30  2  0
 30 31  1  0
 31 32  1  0
 30 33  1  0
 33 34  2  0
 18 35  1  0
 35 36  2  0
  6 37  1  0
 37 38  2  0
 38  3  1  0
 14  8  1  0
 35 15  1  0
 26 20  1  0
 34 27  1  0
  1 39  1  0
  1 40  1  0
  1 41  1  0
  4 42  1  0
  5 43  1  0
  9 44  1  0
 10 45  1  0
 12 46  1  0
 12 47  1  0
 12 48  1  0
 13 49  1  0
 14 50  1  0
 21 51  1  0
 22 52  1  0
 24 53  1  0
 24 54  1  0
 24 55  1  0
 25 56  1  0
 26 57  1  0
 28 58  1  0
 29 59  1  0
 32 60  1  0
 32 61  1  0
 32 62  1  0
 33 63  1  0
 34 64  1  0
 37 65  1  0
 38 66  1  0
M  CHG  2  17  -1  19   1
M  END
