
     RDKit          3D

 33 36  0  0  0  0  0  0  0  0999 V2000
    6.6929   -0.1652    0.5150 N   0  0  0  0  0  0  0  0  0  0  0  0
    5.5389   -0.1302    0.4378 C   0  0  0  0  0  0  0  0  0  0  0  0
    4.0914   -0.0920    0.3439 C   0  0  0  0  0  0  0  0  0  0  0  0
    3.4521   -0.0207   -0.8758 C   0  0  0  0  0  0  0  0  0  0  0  0
    2.1124    0.0135   -0.9353 N   0  0  0  0  0  0  0  0  0  0  0  0
    1.3690   -0.0204    0.1764 C   0  0  0  0  0  0  0  0  0  0  0  0
   -0.1001    0.0212    0.0209 C   0  0  0  0  0  0  0  0  0  0  0  0
   -0.8004   -1.1772   -0.1065 C   0  0  0  0  0  0  0  0  0  0  0  0
   -0.1265   -2.3785   -0.0867 C   0  0  0  0  0  0  0  0  0  0  0  0
   -0.7900   -3.5939   -0.2108 C   0  0  0  0  0  0  0  0  0  0  0  0
   -2.1455   -3.5672   -0.3549 C   0  0  0  0  0  0  0  0  0  0  0  0
   -2.8255   -2.3561   -0.3749 C   0  0  0  0  0  0  0  0  0  0  0  0
   -2.1849   -1.1498   -0.2536 C   0  0  0  0  0  0  0  0  0  0  0  0
   -2.8260    0.0673   -0.2691 C   0  0  0  0  0  0  0  0  0  0  0  0
   -2.1624    1.2708   -0.1455 C   0  0  0  0  0  0  0  0  0  0  0  0
   -2.8653    2.4576   -0.1690 C   0  0  0  0  0  0  0  0  0  0  0  0
   -2.1728    3.6389   -0.0433 C   0  0  0  0  0  0  0  0  0  0  0  0
   -0.8054    3.6152    0.1022 C   0  0  0  0  0  0  0  0  0  0  0  0
   -0.1123    2.4215    0.1243 C   0  0  0  0  0  0  0  0  0  0  0  0
   -0.7815    1.2213    0.0003 C   0  0  0  0  0  0  0  0  0  0  0  0
    1.9422   -0.0897    1.3866 N   0  0  0  0  0  0  0  0  0  0  0  0
    3.2841   -0.1247    1.4628 C   0  0  0  0  0  0  0  0  0  0  0  0
    4.0501    0.0075   -1.7906 H   0  0  0  0  0  0  0  0  0  0  0  0
    0.9649   -2.4263    0.0282 H   0  0  0  0  0  0  0  0  0  0  0  0
   -0.2088   -4.5133   -0.1887 H   0  0  0  0  0  0  0  0  0  0  0  0
   -2.6838   -4.5174   -0.4540 H   0  0  0  0  0  0  0  0  0  0  0  0
   -3.9037   -2.3609   -0.4906 H   0  0  0  0  0  0  0  0  0  0  0  0
   -3.9014    0.0721   -0.3841 H   0  0  0  0  0  0  0  0  0  0  0  0
   -3.9348    2.5071   -0.2814 H   0  0  0  0  0  0  0  0  0  0  0  0
   -2.6971    4.5835   -0.0582 H   0  0  0  0  0  0  0  0  0  0  0  0
   -0.2430    4.5330    0.2025 H   0  0  0  0  0  0  0  0  0  0  0  0
    0.9715    2.4343    0.2410 H   0  0  0  0  0  0  0  0  0  0  0  0
    3.8016   -0.1815    2.4308 H   0  0  0  0  0  0  0  0  0  0  0  0
  1  2  3  0
  2  3  1  0
  3  4  2  0
  4  5  1  0
  5  6  2  0
  6  7  1  0
  7  8  1  0
  8  9  2  0
  9 10  1  0
 10 11  2  0
 11 12  1  0
 12 13  2  0
 13 14  1  0
 14 15  2  0
 15 16  1  0
 16 17  2  0
 17 18  1  0
 18 19  2  0
 19 20  1  0
  6 21  1  0
 21 22  2  0
 22  3  1  0
 20  7  2  0
 13  8  1  0
 20 15  1  0
  4 23  1  0
  9 24  1  0
 10 25  1  0
 11 26  1  0
 12 27  1  0
 14 28  1  0
 16 29  1  0
 17 30  1  0
 18 31  1  0
 19 32  1  0
 22 33  1  0
M  END
