
     RDKit          3D

 51 54  0  0  0  0  0  0  0  0999 V2000
    4.7486    0.2173   -0.2084 C   0  0  0  0  0  0  0  0  0  0  0  0
    3.2936    0.0566    0.0452 C   0  0  0  0  0  0  0  0  0  0  0  0
    2.4566    0.8249   -0.6064 C   0  0  0  0  0  0  0  0  0  0  0  0
    1.0313    0.6906   -0.3794 C   0  0  0  0  0  0  0  0  0  0  0  0
    0.1316    1.5021   -1.0666 C   0  0  0  0  0  0  0  0  0  0  0  0
   -1.2287    1.4271   -0.8981 C   0  0  0  0  0  0  0  0  0  0  0  0
   -1.8214    0.5213   -0.0184 C   0  0  0  0  0  0  0  0  0  0  0  0
   -3.2123    0.4260   -0.0072 N   0  0  0  0  0  0  0  0  0  0  0  0
   -3.9484    0.6008    1.2297 C   0  0  0  0  0  0  0  0  0  0  0  0
   -5.0580    1.4476    1.0707 C   0  0  0  0  0  0  0  0  0  0  0  0
   -5.8743    1.7137    2.1345 C   0  0  0  0  0  0  0  0  0  0  0  0
   -5.5878    1.1394    3.3522 C   0  0  0  0  0  0  0  0  0  0  0  0
   -4.4997    0.3075    3.5125 C   0  0  0  0  0  0  0  0  0  0  0  0
   -3.6725    0.0425    2.4180 C   0  0  0  0  0  0  0  0  0  0  0  0
   -4.0248    0.0123   -1.1263 C   0  0  0  0  0  0  0  0  0  0  0  0
   -5.0480   -0.9003   -0.7986 C   0  0  0  0  0  0  0  0  0  0  0  0
   -5.8979   -1.4016   -1.7548 C   0  0  0  0  0  0  0  0  0  0  0  0
   -5.7626   -1.0154   -3.0679 C   0  0  0  0  0  0  0  0  0  0  0  0
   -4.7625   -0.1285   -3.3647 C   0  0  0  0  0  0  0  0  0  0  0  0
   -3.8846    0.3944   -2.4033 C   0  0  0  0  0  0  0  0  0  0  0  0
   -0.9392   -0.2840    0.6637 C   0  0  0  0  0  0  0  0  0  0  0  0
    0.4490   -0.1972    0.4851 C   0  0  0  0  0  0  0  0  0  0  0  0
    5.6297   -0.5250    0.4160 C   0  0  0  0  0  0  0  0  0  0  0  0
    7.0387   -0.3936    0.1928 C   0  0  0  0  0  0  0  0  0  0  0  0
    7.5678    0.5118   -0.6842 C   0  0  0  0  0  0  0  0  0  0  0  0
    8.9624    0.5721   -0.8404 C   0  0  0  0  0  0  0  0  0  0  0  0
    9.7348   -0.2485   -0.1357 N   0  0  0  0  0  0  0  0  0  0  0  0
    9.2629   -1.1446    0.7286 C   0  0  0  0  0  0  0  0  0  0  0  0
    7.9019   -1.2292    0.9050 C   0  0  0  0  0  0  0  0  0  0  0  0
    5.0786    0.9524   -0.9133 H   0  0  0  0  0  0  0  0  0  0  0  0
    3.0282   -0.6995    0.7649 H   0  0  0  0  0  0  0  0  0  0  0  0
    2.8171    1.5531   -1.3071 H   0  0  0  0  0  0  0  0  0  0  0  0
    0.5309    2.2277   -1.7687 H   0  0  0  0  0  0  0  0  0  0  0  0
   -1.8614    2.1462   -1.4366 H   0  0  0  0  0  0  0  0  0  0  0  0
   -5.2569    1.8879    0.0880 H   0  0  0  0  0  0  0  0  0  0  0  0
   -6.7475    2.3719    2.0368 H   0  0  0  0  0  0  0  0  0  0  0  0
   -6.2038    1.3177    4.2306 H   0  0  0  0  0  0  0  0  0  0  0  0
   -4.2770   -0.1421    4.4694 H   0  0  0  0  0  0  0  0  0  0  0  0
   -2.8559   -0.6100    2.5909 H   0  0  0  0  0  0  0  0  0  0  0  0
   -5.1629   -1.2094    0.2274 H   0  0  0  0  0  0  0  0  0  0  0  0
   -6.6880   -2.1040   -1.5129 H   0  0  0  0  0  0  0  0  0  0  0  0
   -6.4252   -1.4010   -3.8367 H   0  0  0  0  0  0  0  0  0  0  0  0
   -4.6338    0.1918   -4.3885 H   0  0  0  0  0  0  0  0  0  0  0  0
   -3.1176    1.0736   -2.6833 H   0  0  0  0  0  0  0  0  0  0  0  0
   -1.3001   -1.0537    1.3429 H   0  0  0  0  0  0  0  0  0  0  0  0
    1.0728   -0.8689    1.0641 H   0  0  0  0  0  0  0  0  0  0  0  0
    5.2792   -1.2818    1.1424 H   0  0  0  0  0  0  0  0  0  0  0  0
    6.9585    1.1997   -1.2777 H   0  0  0  0  0  0  0  0  0  0  0  0
    9.3561    1.2928   -1.5366 H   0  0  0  0  0  0  0  0  0  0  0  0
    9.8908   -1.8111    1.3010 H   0  0  0  0  0  0  0  0  0  0  0  0
    7.5321   -1.9604    1.6092 H   0  0  0  0  0  0  0  0  0  0  0  0
  1  2  1  0
  2  3  2  0
  3  4  1  0
  4  5  2  0
  5  6  1  0
  6  7  2  0
  7  8  1  0
  8  9  1  0
  9 10  2  0
 10 11  1  0
 11 12  2  0
 12 13  1  0
 13 14  2  0
  8 15  1  0
 15 16  2  0
 16 17  1  0
 17 18  2  0
 18 19  1  0
 19 20  2  0
  7 21  1  0
 21 22  2  0
  1 23  2  0
 23 24  1  0
 24 25  2  0
 25 26  1  0
 26 27  2  0
 27 28  1  0
 28 29  2  0
 22  4  1  0
 29 24  1  0
 14  9  1  0
 20 15  1  0
  1 30  1  0
  2 31  1  0
  3 32  1  0
  5 33  1  0
  6 34  1  0
 10 35  1  0
 11 36  1  0
 12 37  1  0
 13 38  1  0
 14 39  1  0
 16 40  1  0
 17 41  1  0
 18 42  1  0
 19 43  1  0
 20 44  1  0
 21 45  1  0
 22 46  1  0
 23 47  1  0
 25 48  1  0
 26 49  1  0
 28 50  1  0
 29 51  1  0
M  END
