
     RDKit          3D

 31 33  0  0  0  0  0  0  0  0999 V2000
   -3.1689    2.0522    0.5344 C   0  0  0  0  0  0  0  0  0  0  0  0
   -2.7733    0.9892    1.5496 C   0  0  0  0  0  0  0  0  0  0  0  0
   -2.5951   -0.2905    0.7810 C   0  0  0  0  0  0  0  0  0  0  0  0
   -3.5610   -1.2287    0.5229 C   0  0  0  0  0  0  0  0  0  0  0  0
   -2.9477   -2.2170   -0.2031 C   0  0  0  0  0  0  0  0  0  0  0  0
   -1.6317   -1.8446   -0.3603 C   0  0  0  0  0  0  0  0  0  0  0  0
   -0.5708   -2.4737   -1.0091 C   0  0  0  0  0  0  0  0  0  0  0  0
    0.6632   -1.8259   -0.9888 C   0  0  0  0  0  0  0  0  0  0  0  0
    0.8685   -0.6215   -0.3693 C   0  0  0  0  0  0  0  0  0  0  0  0
    2.1613    0.0503   -0.3519 C   0  0  0  0  0  0  0  0  0  0  0  0
    3.2660   -0.4810   -0.9580 C   0  0  0  0  0  0  0  0  0  0  0  0
    4.4934    0.1983   -0.9181 C   0  0  0  0  0  0  0  0  0  0  0  0
    4.6327    1.4079   -0.2774 C   0  0  0  0  0  0  0  0  0  0  0  0
    3.5152    1.9512    0.3390 C   0  0  0  0  0  0  0  0  0  0  0  0
    2.3168    1.2776    0.2942 C   0  0  0  0  0  0  0  0  0  0  0  0
   -0.2099   -0.0719    0.2398 N   0  0  0  0  0  0  0  0  0  0  0  0
   -1.4127   -0.6717    0.2377 N   0  0  0  0  0  0  0  0  0  0  0  0
   -2.2838    2.2236   -0.1157 H   0  0  0  0  0  0  0  0  0  0  0  0
   -3.4085    2.9881    1.0356 H   0  0  0  0  0  0  0  0  0  0  0  0
   -4.0260    1.6302   -0.0349 H   0  0  0  0  0  0  0  0  0  0  0  0
   -1.8049    1.3075    1.9863 H   0  0  0  0  0  0  0  0  0  0  0  0
   -3.5217    0.8494    2.3336 H   0  0  0  0  0  0  0  0  0  0  0  0
   -4.6149   -1.2146    0.8243 H   0  0  0  0  0  0  0  0  0  0  0  0
   -3.4093   -3.1410   -0.5936 H   0  0  0  0  0  0  0  0  0  0  0  0
   -0.7482   -3.4082   -1.4848 H   0  0  0  0  0  0  0  0  0  0  0  0
    1.4899   -2.3230   -1.4982 H   0  0  0  0  0  0  0  0  0  0  0  0
    3.2443   -1.4234   -1.4814 H   0  0  0  0  0  0  0  0  0  0  0  0
    5.3680   -0.2195   -1.3964 H   0  0  0  0  0  0  0  0  0  0  0  0
    5.5806    1.9416   -0.2415 H   0  0  0  0  0  0  0  0  0  0  0  0
    3.6417    2.9044    0.8392 H   0  0  0  0  0  0  0  0  0  0  0  0
    1.4468    1.6846    0.7651 H   0  0  0  0  0  0  0  0  0  0  0  0
  1  2  1  0
  2  3  1  0
  3  4  2  0
  4  5  1  0
  5  6  2  0
  6  7  1  0
  7  8  2  0
  8  9  1  0
  9 10  1  0
 10 11  2  0
 11 12  1  0
 12 13  2  0
 13 14  1  0
 14 15  2  0
  9 16  2  0
 16 17  1  0
 17  3  1  0
 17  6  1  0
 15 10  1  0
  1 18  1  0
  1 19  1  0
  1 20  1  0
  2 21  1  0
  2 22  1  0
  4 23  1  0
  5 24  1  0
  7 25  1  0
  8 26  1  0
 11 27  1  0
 12 28  1  0
 13 29  1  0
 14 30  1  0
 15 31  1  0
M  END
