
     RDKit          3D

 68 72  0  0  0  0  0  0  0  0999 V2000
    3.4407   -0.1428   -0.4056 C   0  0  0  0  0  0  0  0  0  0  0  0
    3.6209   -1.3311    0.1844 C   0  0  0  0  0  0  0  0  0  0  0  0
    3.7999   -2.5148    0.7860 C   0  0  0  0  0  0  0  0  0  0  0  0
    2.9196   -3.1656    1.5957 C   0  0  0  0  0  0  0  0  0  0  0  0
    3.2926   -4.3561    2.2794 C   0  0  0  0  0  0  0  0  0  0  0  0
    4.5159   -4.8622    2.1347 C   0  0  0  0  0  0  0  0  0  0  0  0
    5.4723   -4.2490    1.3104 C   0  0  0  0  0  0  0  0  0  0  0  0
    5.1220   -3.1038    0.6552 C   0  0  0  0  0  0  0  0  0  0  0  0
    3.2557    1.0584   -1.0205 C   0  0  0  0  0  0  0  0  0  0  0  0
    4.5063    1.9387   -1.2318 C   0  0  0  0  0  0  0  0  0  0  0  0
    5.4685    2.6414   -1.3933 C   0  0  0  0  0  0  0  0  0  0  0  0
    6.5974    3.4811   -1.5618 C   0  0  0  0  0  0  0  0  0  0  0  0
    7.7787    2.8235   -1.9837 C   0  0  0  0  0  0  0  0  0  0  0  0
    9.0416    3.4689   -1.8700 C   0  0  0  0  0  0  0  0  0  0  0  0
    9.0681    4.7121   -1.3408 C   0  0  0  0  0  0  0  0  0  0  0  0
    7.9691    5.3875   -0.9325 C   0  0  0  0  0  0  0  0  0  0  0  0
    6.7044    4.7254   -1.0587 C   0  0  0  0  0  0  0  0  0  0  0  0
    2.1064    1.6200   -1.3259 C   0  0  0  0  0  0  0  0  0  0  0  0
    0.8724    0.9669   -1.0072 C   0  0  0  0  0  0  0  0  0  0  0  0
    0.4343    1.1795    0.3305 C   0  0  0  0  0  0  0  0  0  0  0  0
   -0.5763    0.5784    0.9408 C   0  0  0  0  0  0  0  0  0  0  0  0
   -1.2735   -0.3638    0.1662 C   0  0  0  0  0  0  0  0  0  0  0  0
   -0.9204   -0.6171   -1.1306 C   0  0  0  0  0  0  0  0  0  0  0  0
   -1.6896   -1.6898   -1.9398 C   0  0  0  0  0  0  0  0  0  0  0  0
   -2.7653   -2.0625   -1.4746 C   0  0  0  0  0  0  0  0  0  0  0  0
   -3.9403   -2.4652   -0.9607 C   0  0  0  0  0  0  0  0  0  0  0  0
   -5.0856   -2.8668   -0.4351 C   0  0  0  0  0  0  0  0  0  0  0  0
   -6.1422   -3.2599    0.0518 C   0  0  0  0  0  0  0  0  0  0  0  0
   -7.4490   -3.0348   -0.5129 C   0  0  0  0  0  0  0  0  0  0  0  0
   -8.6116   -3.3414    0.1445 C   0  0  0  0  0  0  0  0  0  0  0  0
   -8.6049   -3.8988    1.3950 C   0  0  0  0  0  0  0  0  0  0  0  0
   -7.3980   -4.1354    2.0052 C   0  0  0  0  0  0  0  0  0  0  0  0
   -6.2208   -3.8343    1.3741 C   0  0  0  0  0  0  0  0  0  0  0  0
   -3.2235   -0.4312   -0.9417 C   0  0  0  0  0  0  0  0  0  0  0  0
   -3.5556    0.7284   -0.5629 C   0  0  0  0  0  0  0  0  0  0  0  0
   -3.8861    1.9277   -0.1808 C   0  0  0  0  0  0  0  0  0  0  0  0
   -4.4452    2.8171   -1.0844 C   0  0  0  0  0  0  0  0  0  0  0  0
   -5.1502    3.9338   -0.6011 C   0  0  0  0  0  0  0  0  0  0  0  0
   -5.2845    4.1434    0.7200 C   0  0  0  0  0  0  0  0  0  0  0  0
   -4.7551    3.3084    1.6730 C   0  0  0  0  0  0  0  0  0  0  0  0
   -4.0571    2.2107    1.2315 C   0  0  0  0  0  0  0  0  0  0  0  0
    0.1529    0.0540   -1.7116 C   0  0  0  0  0  0  0  0  0  0  0  0
    1.9196   -2.7950    1.6820 H   0  0  0  0  0  0  0  0  0  0  0  0
    2.5492   -4.8237    2.9030 H   0  0  0  0  0  0  0  0  0  0  0  0
    4.8191   -5.7725    2.7110 H   0  0  0  0  0  0  0  0  0  0  0  0
    6.4434   -4.6935    1.2265 H   0  0  0  0  0  0  0  0  0  0  0  0
    5.8143   -2.5742    0.0239 H   0  0  0  0  0  0  0  0  0  0  0  0
    7.7205    1.8619   -2.3722 H   0  0  0  0  0  0  0  0  0  0  0  0
    9.9319    2.9486   -2.1703 H   0  0  0  0  0  0  0  0  0  0  0  0
   10.1264    5.1894   -1.2139 H   0  0  0  0  0  0  0  0  0  0  0  0
    8.0343    6.3938   -0.5200 H   0  0  0  0  0  0  0  0  0  0  0  0
    5.8316    5.2877   -0.7296 H   0  0  0  0  0  0  0  0  0  0  0  0
    2.0727    2.6254   -1.8020 H   0  0  0  0  0  0  0  0  0  0  0  0
    1.0169    1.9803    0.8594 H   0  0  0  0  0  0  0  0  0  0  0  0
   -0.9102    0.7505    1.9273 H   0  0  0  0  0  0  0  0  0  0  0  0
   -2.0141   -0.9116    0.7340 H   0  0  0  0  0  0  0  0  0  0  0  0
   -1.1849   -2.0397   -2.8279 H   0  0  0  0  0  0  0  0  0  0  0  0
   -7.5483   -2.5790   -1.4759 H   0  0  0  0  0  0  0  0  0  0  0  0
   -9.6075   -3.1632   -0.2902 H   0  0  0  0  0  0  0  0  0  0  0  0
   -9.4987   -4.1681    1.8266 H   0  0  0  0  0  0  0  0  0  0  0  0
   -7.4054   -4.5528    3.0132 H   0  0  0  0  0  0  0  0  0  0  0  0
   -5.3111   -3.9906    1.8790 H   0  0  0  0  0  0  0  0  0  0  0  0
   -4.3179    2.6578   -2.1518 H   0  0  0  0  0  0  0  0  0  0  0  0
   -5.5587    4.6383   -1.3270 H   0  0  0  0  0  0  0  0  0  0  0  0
   -5.8897    5.0089    1.0411 H   0  0  0  0  0  0  0  0  0  0  0  0
   -4.8930    3.4759    2.7072 H   0  0  0  0  0  0  0  0  0  0  0  0
   -3.6090    1.4750    1.8837 H   0  0  0  0  0  0  0  0  0  0  0  0
    0.3635   -0.2084   -2.7156 H   0  0  0  0  0  0  0  0  0  0  0  0
  1  2  3  0
  2  3  1  0
  3  4  2  0
  4  5  1  0
  5  6  2  0
  6  7  1  0
  7  8  2  0
  1  9  1  0
  9 10  1  0
 10 11  3  0
 11 12  1  0
 12 13  2  0
 13 14  1  0
 14 15  2  0
 15 16  1  0
 16 17  2  0
  9 18  2  3
 18 19  1  0
 19 20  2  0
 20 21  1  0
 21 22  2  0
 22 23  1  0
 23 24  1  0
 24 25  2  3
 25 26  1  0
 26 27  3  0
 27 28  1  0
 28 29  2  0
 29 30  1  0
 30 31  2  0
 31 32  1  0
 32 33  2  0
 25 34  1  0
 34 35  3  0
 35 36  1  0
 36 37  2  0
 37 38  1  0
 38 39  2  0
 39 40  1  0
 40 41  2  0
 23 42  2  0
  8  3  1  0
 17 12  1  0
 42 19  1  0
 33 28  1  0
 41 36  1  0
  4 43  1  0
  5 44  1  0
  6 45  1  0
  7 46  1  0
  8 47  1  0
 13 48  1  0
 14 49  1  0
 15 50  1  0
 16 51  1  0
 17 52  1  0
 18 53  1  0
 20 54  1  0
 21 55  1  0
 22 56  1  0
 24 57  1  0
 29 58  1  0
 30 59  1  0
 31 60  1  0
 32 61  1  0
 33 62  1  0
 37 63  1  0
 38 64  1  0
 39 65  1  0
 40 66  1  0
 41 67  1  0
 42 68  1  0
M  END
