
     RDKit          3D

 46 49  0  0  0  0  0  0  0  0999 V2000
   -4.0805   -4.3541    1.1560 C   0  0  0  0  0  0  0  0  0  0  0  0
   -2.9855   -3.3801    0.9343 C   0  0  0  0  0  0  0  0  0  0  0  0
   -2.1639   -3.5314   -0.1809 C   0  0  0  0  0  0  0  0  0  0  0  0
   -1.1535   -2.6170   -0.3577 C   0  0  0  0  0  0  0  0  0  0  0  0
   -0.9197   -1.5643    0.5142 C   0  0  0  0  0  0  0  0  0  0  0  0
    0.1978   -0.6549    0.2579 C   0  0  0  0  0  0  0  0  0  0  0  0
    1.5149   -1.0237    0.3502 N   0  0  0  0  0  0  0  0  0  0  0  0
    2.3012    0.0244    0.0679 C   0  0  0  0  0  0  0  0  0  0  0  0
    3.7781    0.0647    0.0576 C   0  0  0  0  0  0  0  0  0  0  0  0
    4.4097    1.2697   -0.1678 C   0  0  0  0  0  0  0  0  0  0  0  0
    5.7637    1.4107   -0.2240 C   0  0  0  0  0  0  0  0  0  0  0  0
    6.5357    0.2681   -0.0429 C   0  0  0  0  0  0  0  0  0  0  0  0
    5.9044   -0.9511    0.1847 C   0  0  0  0  0  0  0  0  0  0  0  0
    6.7851   -2.0798    0.3428 C   0  0  0  0  0  0  0  0  0  0  0  0
    7.4786   -2.9922    0.4586 N   0  0  0  0  0  0  0  0  0  0  0  0
    4.5270   -1.0578    0.2364 C   0  0  0  0  0  0  0  0  0  0  0  0
    1.4760    1.0474   -0.2007 N   0  0  0  0  0  0  0  0  0  0  0  0
    0.1708    0.6694   -0.0955 C   0  0  0  0  0  0  0  0  0  0  0  0
   -0.9549    1.5638   -0.3532 C   0  0  0  0  0  0  0  0  0  0  0  0
   -1.8434    1.9631    0.6157 C   0  0  0  0  0  0  0  0  0  0  0  0
   -2.8844    2.8305    0.2791 C   0  0  0  0  0  0  0  0  0  0  0  0
   -3.0476    3.3012   -1.0066 C   0  0  0  0  0  0  0  0  0  0  0  0
   -4.1670    4.2279   -1.3331 C   0  0  0  0  0  0  0  0  0  0  0  0
   -2.1661    2.9123   -1.9928 C   0  0  0  0  0  0  0  0  0  0  0  0
   -1.1562    2.0652   -1.6463 C   0  0  0  0  0  0  0  0  0  0  0  0
   -1.7389   -1.4253    1.6126 C   0  0  0  0  0  0  0  0  0  0  0  0
   -2.7559   -2.3343    1.8028 C   0  0  0  0  0  0  0  0  0  0  0  0
   -3.8328   -4.8958    2.1182 H   0  0  0  0  0  0  0  0  0  0  0  0
   -4.0944   -5.0566    0.3047 H   0  0  0  0  0  0  0  0  0  0  0  0
   -5.0741   -3.8693    1.2275 H   0  0  0  0  0  0  0  0  0  0  0  0
   -2.3588   -4.3638   -0.8545 H   0  0  0  0  0  0  0  0  0  0  0  0
   -0.5353   -2.7883   -1.2565 H   0  0  0  0  0  0  0  0  0  0  0  0
    3.7999    2.1759   -0.3119 H   0  0  0  0  0  0  0  0  0  0  0  0
    6.1817    2.3868   -0.4035 H   0  0  0  0  0  0  0  0  0  0  0  0
    7.6001    0.3769   -0.0866 H   0  0  0  0  0  0  0  0  0  0  0  0
    4.0751   -2.0255    0.4144 H   0  0  0  0  0  0  0  0  0  0  0  0
    1.7768    2.0289   -0.4624 H   0  0  0  0  0  0  0  0  0  0  0  0
   -1.7557    1.6261    1.6510 H   0  0  0  0  0  0  0  0  0  0  0  0
   -3.5841    3.1408    1.0526 H   0  0  0  0  0  0  0  0  0  0  0  0
   -4.3544    4.8523   -0.4305 H   0  0  0  0  0  0  0  0  0  0  0  0
   -3.8635    4.8918   -2.1823 H   0  0  0  0  0  0  0  0  0  0  0  0
   -5.0669    3.6804   -1.6207 H   0  0  0  0  0  0  0  0  0  0  0  0
   -2.2859    3.2831   -3.0251 H   0  0  0  0  0  0  0  0  0  0  0  0
   -0.4498    1.7467   -2.4125 H   0  0  0  0  0  0  0  0  0  0  0  0
   -1.5872   -0.6083    2.3359 H   0  0  0  0  0  0  0  0  0  0  0  0
   -3.4162   -2.2344    2.6728 H   0  0  0  0  0  0  0  0  0  0  0  0
  1  2  1  0
  2  3  2  0
  3  4  1  0
  4  5  2  0
  5  6  1  0
  6  7  1  0
  7  8  2  0
  8  9  1  0
  9 10  2  0
 10 11  1  0
 11 12  2  0
 12 13  1  0
 13 14  1  0
 14 15  3  0
 13 16  2  0
  8 17  1  0
 17 18  1  0
 18 19  1  0
 19 20  2  0
 20 21  1  0
 21 22  2  0
 22 23  1  0
 22 24  1  0
 24 25  2  0
  5 26  1  0
 26 27  2  0
 27  2  1  0
 18  6  2  0
 25 19  1  0
 16  9  1  0
  1 28  1  0
  1 29  1  0
  1 30  1  0
  3 31  1  0
  4 32  1  0
 10 33  1  0
 11 34  1  0
 12 35  1  0
 16 36  1  0
 17 37  1  0
 20 38  1  0
 21 39  1  0
 23 40  1  0
 23 41  1  0
 23 42  1  0
 24 43  1  0
 25 44  1  0
 26 45  1  0
 27 46  1  0
M  END
