
     RDKit          3D

 58 61  0  0  0  0  0  0  0  0999 V2000
   -7.7714    1.7716    1.3672 C   0  0  0  0  0  0  0  0  0  0  0  0
   -6.4435    1.8295    2.1065 C   0  0  0  0  0  0  0  0  0  0  0  0
   -5.3003    1.4854    1.1490 C   0  0  0  0  0  0  0  0  0  0  0  0
   -5.5629    0.0943    0.6402 C   0  0  0  0  0  0  0  0  0  0  0  0
   -4.5089   -0.3883   -0.3025 C   0  0  0  0  0  0  0  0  0  0  0  0
   -4.9178   -1.8051   -0.7214 C   0  0  0  0  0  0  0  0  0  0  0  0
   -4.9964   -2.6867    0.4896 C   0  0  0  0  0  0  0  0  0  0  0  0
   -4.3480    0.4913   -1.5106 C   0  0  0  0  0  0  0  0  0  0  0  0
   -3.4104    0.1129   -2.4231 O   0  0  0  0  0  0  0  0  0  0  0  0
   -2.0745   -0.0093   -2.3612 C   0  0  0  0  0  0  0  0  0  0  0  0
   -1.3929   -0.4611   -3.4990 C   0  0  0  0  0  0  0  0  0  0  0  0
   -0.0488   -0.6048   -3.5070 C   0  0  0  0  0  0  0  0  0  0  0  0
    0.7595   -0.3228   -2.4094 C   0  0  0  0  0  0  0  0  0  0  0  0
    2.0571   -0.4351   -2.3369 N   0  0  0  0  0  0  0  0  0  0  0  0
    2.6907   -0.1361   -1.2437 C   0  0  0  0  0  0  0  0  0  0  0  0
    4.1331   -0.1771   -0.9122 C   0  0  0  0  0  0  0  0  0  0  0  0
    5.1857   -0.5411   -1.6693 C   0  0  0  0  0  0  0  0  0  0  0  0
    6.4125   -0.4848   -1.1145 C   0  0  0  0  0  0  0  0  0  0  0  0
    6.5041   -0.0622    0.1782 C   0  0  0  0  0  0  0  0  0  0  0  0
    7.6332    0.1207    1.0840 C   0  0  0  0  0  0  0  0  0  0  0  0
    8.9620   -0.0960    0.8387 C   0  0  0  0  0  0  0  0  0  0  0  0
    9.6497   -0.5621   -0.3698 C   0  0  0  0  0  0  0  0  0  0  0  0
    9.5976    0.2198    2.0000 N   0  0  0  0  0  0  0  0  0  0  0  0
    8.7334    0.5977    2.8817 O   0  0  0  0  0  0  0  0  0  0  0  0
    7.5340    0.5599    2.3914 C   0  0  0  0  0  0  0  0  0  0  0  0
    6.2624    0.9258    3.1092 C   0  0  0  0  0  0  0  0  0  0  0  0
    4.8500    0.2448    0.5754 S   0  0  0  0  0  0  0  0  0  0  0  0
    1.4085    0.3470   -0.2027 S   0  0  0  0  0  0  0  0  0  0  0  0
    0.1075    0.1202   -1.2902 C   0  0  0  0  0  0  0  0  0  0  0  0
   -1.2856    0.2727   -1.2725 C   0  0  0  0  0  0  0  0  0  0  0  0
   -8.1578    0.7377    1.3066 H   0  0  0  0  0  0  0  0  0  0  0  0
   -8.5366    2.4020    1.8650 H   0  0  0  0  0  0  0  0  0  0  0  0
   -7.5513    2.1537    0.3341 H   0  0  0  0  0  0  0  0  0  0  0  0
   -6.2862    2.8269    2.5667 H   0  0  0  0  0  0  0  0  0  0  0  0
   -6.4713    1.0909    2.9223 H   0  0  0  0  0  0  0  0  0  0  0  0
   -5.2894    2.2215    0.3107 H   0  0  0  0  0  0  0  0  0  0  0  0
   -4.3664    1.4789    1.7343 H   0  0  0  0  0  0  0  0  0  0  0  0
   -6.5939   -0.0132    0.2275 H   0  0  0  0  0  0  0  0  0  0  0  0
   -5.5161   -0.5796    1.5439 H   0  0  0  0  0  0  0  0  0  0  0  0
   -3.5708   -0.4371    0.2420 H   0  0  0  0  0  0  0  0  0  0  0  0
   -5.9338   -1.7626   -1.1806 H   0  0  0  0  0  0  0  0  0  0  0  0
   -4.2272   -2.1782   -1.4911 H   0  0  0  0  0  0  0  0  0  0  0  0
   -4.6421   -3.7140    0.1855 H   0  0  0  0  0  0  0  0  0  0  0  0
   -4.2906   -2.3399    1.2725 H   0  0  0  0  0  0  0  0  0  0  0  0
   -6.0143   -2.7378    0.9294 H   0  0  0  0  0  0  0  0  0  0  0  0
   -4.0806    1.5162   -1.0932 H   0  0  0  0  0  0  0  0  0  0  0  0
   -5.3356    0.6046   -2.0598 H   0  0  0  0  0  0  0  0  0  0  0  0
   -1.9809   -0.7015   -4.4029 H   0  0  0  0  0  0  0  0  0  0  0  0
    0.4398   -0.9679   -4.4399 H   0  0  0  0  0  0  0  0  0  0  0  0
    5.0368   -0.8766   -2.7196 H   0  0  0  0  0  0  0  0  0  0  0  0
    7.3432   -0.7670   -1.6638 H   0  0  0  0  0  0  0  0  0  0  0  0
    9.3121   -1.5637   -0.6687 H   0  0  0  0  0  0  0  0  0  0  0  0
   10.7531   -0.5207   -0.2123 H   0  0  0  0  0  0  0  0  0  0  0  0
    9.4542    0.1351   -1.2035 H   0  0  0  0  0  0  0  0  0  0  0  0
    6.4665    1.0282    4.1930 H   0  0  0  0  0  0  0  0  0  0  0  0
    5.5152    0.0836    3.0309 H   0  0  0  0  0  0  0  0  0  0  0  0
    5.7840    1.8141    2.6632 H   0  0  0  0  0  0  0  0  0  0  0  0
   -1.6799    0.6455   -0.3417 H   0  0  0  0  0  0  0  0  0  0  0  0
  1  2  1  0
  2  3  1  0
  3  4  1  0
  4  5  1  0
  5  6  1  0
  6  7  1  0
  5  8  1  0
  8  9  1  0
  9 10  1  0
 10 11  2  0
 11 12  1  0
 12 13  2  0
 13 14  1  0
 14 15  2  0
 15 16  1  0
 16 17  2  0
 17 18  1  0
 18 19  2  0
 19 20  1  0
 20 21  1  0
 21 22  1  0
 21 23  2  0
 23 24  1  0
 24 25  1  0
 25 26  1  0
 19 27  1  0
 15 28  1  0
 28 29  1  0
 29 30  2  0
 30 10  1  0
 29 13  1  0
 27 16  1  0
 25 20  2  0
  1 31  1  0
  1 32  1  0
  1 33  1  0
  2 34  1  0
  2 35  1  0
  3 36  1  0
  3 37  1  0
  4 38  1  0
  4 39  1  0
  5 40  1  0
  6 41  1  0
  6 42  1  0
  7 43  1  0
  7 44  1  0
  7 45  1  0
  8 46  1  0
  8 47  1  0
 11 48  1  0
 12 49  1  0
 17 50  1  0
 18 51  1  0
 22 52  1  0
 22 53  1  0
 22 54  1  0
 26 55  1  0
 26 56  1  0
 26 57  1  0
 30 58  1  0
M  END
