
     RDKit          3D

 61 70  0  0  0  0  0  0  0  0999 V2000
   -1.3250    5.6612    0.4311 C   0  0  0  0  0  0  0  0  0  0  0  0
   -1.0515    4.9733    1.5907 C   0  0  0  0  0  0  0  0  0  0  0  0
   -0.7054    3.6595    1.5383 C   0  0  0  0  0  0  0  0  0  0  0  0
   -0.6339    3.0289    0.2964 C   0  0  0  0  0  0  0  0  0  0  0  0
   -0.3055    1.6392    0.1966 C   0  0  0  0  0  0  0  0  0  0  0  0
    0.9281    1.2032   -0.0095 C   0  0  0  0  0  0  0  0  0  0  0  0
    2.2179    1.8935   -0.1874 C   0  0  0  0  0  0  0  0  0  0  0  0
    2.5656    3.1974   -0.3441 C   0  0  0  0  0  0  0  0  0  0  0  0
    3.9049    3.5325   -0.4855 C   0  0  0  0  0  0  0  0  0  0  0  0
    4.8797    2.5763   -0.4701 C   0  0  0  0  0  0  0  0  0  0  0  0
    4.5268    1.2345   -0.3090 C   0  0  0  0  0  0  0  0  0  0  0  0
    3.2112    0.9017   -0.1695 C   0  0  0  0  0  0  0  0  0  0  0  0
    2.5262   -0.3830    0.0258 C   0  0  0  0  0  0  0  0  0  0  0  0
    1.2784   -0.1529    0.0908 N   0  0  0  0  0  4  0  0  0  0  0  0
    0.2660   -1.2621    0.0622 B   0  0  0  0  0  4  0  0  0  0  0  0
    0.6783   -2.1744    1.1767 O   0  0  0  0  0  0  0  0  0  0  0  0
    2.0619   -2.5333    1.0848 C   0  0  0  0  0  0  0  0  0  0  0  0
    2.4476   -3.7923    1.5802 C   0  0  0  0  0  0  0  0  0  0  0  0
    3.7680   -4.1735    1.5131 C   0  0  0  0  0  0  0  0  0  0  0  0
    4.6675   -3.3002    0.9584 C   0  0  0  0  0  0  0  0  0  0  0  0
    4.3162   -2.0408    0.4568 C   0  0  0  0  0  0  0  0  0  0  0  0
    2.9975   -1.6811    0.5347 C   0  0  0  0  0  0  0  0  0  0  0  0
    0.2911   -2.2127   -1.1216 O   0  0  0  0  0  0  0  0  0  0  0  0
   -0.7658   -3.1263   -1.1336 C   0  0  0  0  0  0  0  0  0  0  0  0
   -0.6308   -4.3814   -1.6910 C   0  0  0  0  0  0  0  0  0  0  0  0
   -1.6410   -5.3110   -1.7280 C   0  0  0  0  0  0  0  0  0  0  0  0
   -2.8366   -4.9340   -1.1689 C   0  0  0  0  0  0  0  0  0  0  0  0
   -3.0313   -3.6812   -0.5921 C   0  0  0  0  0  0  0  0  0  0  0  0
   -1.9966   -2.7880   -0.5800 C   0  0  0  0  0  0  0  0  0  0  0  0
   -2.1408   -1.4334    0.0358 C   0  0  0  0  0  0  0  0  0  0  0  0
   -3.2691   -0.6566    0.2313 C   0  0  0  0  0  0  0  0  0  0  0  0
   -4.6092   -0.8948    0.3072 C   0  0  0  0  0  0  0  0  0  0  0  0
   -5.4534    0.1893    0.5100 C   0  0  0  0  0  0  0  0  0  0  0  0
   -5.0043    1.4920    0.6375 C   0  0  0  0  0  0  0  0  0  0  0  0
   -3.6362    1.6968    0.5549 C   0  0  0  0  0  0  0  0  0  0  0  0
   -2.7637    0.6567    0.3558 C   0  0  0  0  0  0  0  0  0  0  0  0
   -1.3936    0.6232    0.2429 C   0  0  0  0  0  0  0  0  0  0  0  0
   -1.0838   -0.6328    0.0679 N   0  0  0  0  0  0  0  0  0  0  0  0
   -0.9142    3.7385   -0.8769 C   0  0  0  0  0  0  0  0  0  0  0  0
   -1.2568    5.0450   -0.8055 C   0  0  0  0  0  0  0  0  0  0  0  0
   -1.6005    6.7157    0.5002 H   0  0  0  0  0  0  0  0  0  0  0  0
   -1.1101    5.4702    2.5466 H   0  0  0  0  0  0  0  0  0  0  0  0
   -0.4804    3.0645    2.3968 H   0  0  0  0  0  0  0  0  0  0  0  0
    1.8147    3.9555   -0.3524 H   0  0  0  0  0  0  0  0  0  0  0  0
    4.1776    4.5821   -0.6115 H   0  0  0  0  0  0  0  0  0  0  0  0
    5.9438    2.8106   -0.5795 H   0  0  0  0  0  0  0  0  0  0  0  0
    5.3526    0.5046   -0.3056 H   0  0  0  0  0  0  0  0  0  0  0  0
    1.7200   -4.4619    2.0124 H   0  0  0  0  0  0  0  0  0  0  0  0
    4.0869   -5.1419    1.8905 H   0  0  0  0  0  0  0  0  0  0  0  0
    5.7112   -3.5923    0.9006 H   0  0  0  0  0  0  0  0  0  0  0  0
    5.0715   -1.4107    0.0196 H   0  0  0  0  0  0  0  0  0  0  0  0
    0.3307   -4.6395   -2.1225 H   0  0  0  0  0  0  0  0  0  0  0  0
   -1.5493   -6.2940   -2.1610 H   0  0  0  0  0  0  0  0  0  0  0  0
   -3.6771   -5.6355   -1.1700 H   0  0  0  0  0  0  0  0  0  0  0  0
   -3.9636   -3.4409   -0.1542 H   0  0  0  0  0  0  0  0  0  0  0  0
   -5.0781   -1.8451    0.2207 H   0  0  0  0  0  0  0  0  0  0  0  0
   -6.5241    0.0388    0.5764 H   0  0  0  0  0  0  0  0  0  0  0  0
   -5.6760    2.3187    0.7942 H   0  0  0  0  0  0  0  0  0  0  0  0
   -3.2979    2.7280    0.6562 H   0  0  0  0  0  0  0  0  0  0  0  0
   -0.8484    3.2206   -1.8090 H   0  0  0  0  0  0  0  0  0  0  0  0
   -1.4881    5.6555   -1.6977 H   0  0  0  0  0  0  0  0  0  0  0  0
  1  2  2  0
  2  3  1  0
  3  4  2  0
  4  5  1  0
  5  6  2  0
  6  7  1  0
  7  8  2  0
  8  9  1  0
  9 10  2  0
 10 11  1  0
 11 12  2  0
 12 13  1  0
 13 14  2  0
 14 15  1  0
 15 16  1  0
 16 17  1  0
 17 18  2  0
 18 19  1  0
 19 20  2  0
 20 21  1  0
 21 22  2  0
 15 23  1  0
 23 24  1  0
 24 25  2  0
 25 26  1  0
 26 27  2  0
 27 28  1  0
 28 29  2  0
 29 30  1  0
 30 31  2  0
 31 32  1  0
 32 33  2  0
 33 34  1  0
 34 35  2  0
 35 36  1  0
 36 37  2  0
 37 38  1  0
  4 39  1  0
 39 40  2  0
 40  1  1  0
 37  5  1  0
 14  6  1  0
 38 15  1  0
 12  7  1  0
 22 13  1  0
 29 24  1  0
 38 30  1  0
 22 17  1  0
 36 31  1  0
  1 41  1  0
  2 42  1  0
  3 43  1  0
  8 44  1  0
  9 45  1  0
 10 46  1  0
 11 47  1  0
 18 48  1  0
 19 49  1  0
 20 50  1  0
 21 51  1  0
 25 52  1  0
 26 53  1  0
 27 54  1  0
 28 55  1  0
 32 56  1  0
 33 57  1  0
 34 58  1  0
 35 59  1  0
 39 60  1  0
 40 61  1  0
M  CHG  2  14   1  15  -1
M  END
