
     RDKit          3D

 90 93  0  0  0  0  0  0  0  0999 V2000
   13.0754    0.9939    0.8521 C   0  0  0  0  0  0  0  0  0  0  0  0
   12.6750   -0.4014    1.2066 C   0  0  0  0  0  0  0  0  0  0  0  0
   13.0362   -0.6901    2.6366 C   0  0  0  0  0  0  0  0  0  0  0  0
   13.4854   -1.3471    0.3315 C   0  0  0  0  0  0  0  0  0  0  0  0
   11.1900   -0.6378    1.0350 C   0  0  0  0  0  0  0  0  0  0  0  0
   10.8547   -0.3832   -0.4123 C   0  0  0  0  0  0  0  0  0  0  0  0
    9.3755   -0.7532   -0.5796 C   0  0  0  0  0  0  0  0  0  0  0  0
    8.6159    0.1735    0.2948 C   0  0  0  0  0  0  0  0  0  0  0  0
    7.6487    0.9023   -0.2304 C   0  0  0  0  0  0  0  0  0  0  0  0
    7.2663    0.7747   -1.9481 S   0  0  0  0  0  0  0  0  0  0  0  0
    5.5101    0.3491   -2.0793 C   0  0  0  0  0  0  0  0  0  0  0  0
    4.5792    1.2611   -1.9705 C   0  0  0  0  0  0  0  0  0  0  0  0
    3.1521    0.9990   -2.0640 C   0  0  0  0  0  0  0  0  0  0  0  0
    2.6114   -0.2471   -2.2794 C   0  0  0  0  0  0  0  0  0  0  0  0
    1.2479   -0.4413   -2.3597 C   0  0  0  0  0  0  0  0  0  0  0  0
    0.3618    0.6062   -2.2276 C   0  0  0  0  0  0  0  0  0  0  0  0
   -1.0988    0.3896   -2.3150 C   0  0  0  0  0  0  0  0  0  0  0  0
   -1.9828    1.1632   -1.6176 C   0  0  0  0  0  0  0  0  0  0  0  0
   -3.3572    0.9484   -1.7088 C   0  0  0  0  0  0  0  0  0  0  0  0
   -3.8694   -0.0506   -2.5048 C   0  0  0  0  0  0  0  0  0  0  0  0
   -5.2910   -0.3291   -2.6452 C   0  0  0  0  0  0  0  0  0  0  0  0
   -6.2549    0.3278   -2.0388 C   0  0  0  0  0  0  0  0  0  0  0  0
   -7.9840   -0.1284   -2.3069 S   0  0  0  0  0  0  0  0  0  0  0  0
   -8.3846   -1.3452   -1.0688 C   0  0  0  0  0  0  0  0  0  0  0  0
   -8.8279   -0.9864    0.1105 C   0  0  0  0  0  0  0  0  0  0  0  0
   -9.0168    0.4418    0.4704 C   0  0  0  0  0  0  0  0  0  0  0  0
   -9.6021    0.5743    1.8611 C   0  0  0  0  0  0  0  0  0  0  0  0
  -10.7236   -0.3660    2.1410 C   0  0  0  0  0  0  0  0  0  0  0  0
  -12.0705    0.1907    1.7326 C   0  0  0  0  0  0  0  0  0  0  0  0
  -13.1327   -0.8352    2.0567 C   0  0  0  0  0  0  0  0  0  0  0  0
  -12.1627    0.5245    0.2749 C   0  0  0  0  0  0  0  0  0  0  0  0
  -12.3911    1.4581    2.5081 C   0  0  0  0  0  0  0  0  0  0  0  0
  -10.5837   -1.7365    1.5756 C   0  0  0  0  0  0  0  0  0  0  0  0
   -9.1602   -2.0033    1.1379 C   0  0  0  0  0  0  0  0  0  0  0  0
   -2.9568   -0.8162   -3.1975 C   0  0  0  0  0  0  0  0  0  0  0  0
   -1.5943   -0.6157   -3.1174 C   0  0  0  0  0  0  0  0  0  0  0  0
    0.8866    1.8626   -2.0111 C   0  0  0  0  0  0  0  0  0  0  0  0
    2.2508    2.0527   -1.9314 C   0  0  0  0  0  0  0  0  0  0  0  0
    8.9560    0.2591    1.7217 C   0  0  0  0  0  0  0  0  0  0  0  0
   10.4377    0.2327    1.9884 C   0  0  0  0  0  0  0  0  0  0  0  0
   12.7082    1.7657    1.5486 H   0  0  0  0  0  0  0  0  0  0  0  0
   14.1927    1.0377    0.9021 H   0  0  0  0  0  0  0  0  0  0  0  0
   12.8304    1.2205   -0.2152 H   0  0  0  0  0  0  0  0  0  0  0  0
   12.7536    0.1487    3.2829 H   0  0  0  0  0  0  0  0  0  0  0  0
   12.4731   -1.6188    2.9337 H   0  0  0  0  0  0  0  0  0  0  0  0
   14.1133   -0.9459    2.6994 H   0  0  0  0  0  0  0  0  0  0  0  0
   13.5507   -0.9756   -0.7236 H   0  0  0  0  0  0  0  0  0  0  0  0
   14.5256   -1.3358    0.7235 H   0  0  0  0  0  0  0  0  0  0  0  0
   13.1140   -2.3739    0.3814 H   0  0  0  0  0  0  0  0  0  0  0  0
   10.9365   -1.6942    1.2445 H   0  0  0  0  0  0  0  0  0  0  0  0
   10.9113    0.6981   -0.6683 H   0  0  0  0  0  0  0  0  0  0  0  0
   11.5098   -0.9940   -1.0374 H   0  0  0  0  0  0  0  0  0  0  0  0
    9.2458   -1.8045   -0.2406 H   0  0  0  0  0  0  0  0  0  0  0  0
    9.0600   -0.7002   -1.6340 H   0  0  0  0  0  0  0  0  0  0  0  0
    7.0588    1.6016    0.3747 H   0  0  0  0  0  0  0  0  0  0  0  0
    5.2084   -0.6751   -2.2511 H   0  0  0  0  0  0  0  0  0  0  0  0
    4.9226    2.2787   -1.7984 H   0  0  0  0  0  0  0  0  0  0  0  0
    3.2508   -1.1100   -2.3916 H   0  0  0  0  0  0  0  0  0  0  0  0
    0.8204   -1.4391   -2.5319 H   0  0  0  0  0  0  0  0  0  0  0  0
   -1.5961    1.9512   -0.9887 H   0  0  0  0  0  0  0  0  0  0  0  0
   -4.0257    1.5630   -1.1570 H   0  0  0  0  0  0  0  0  0  0  0  0
   -5.6156   -1.1426   -3.2994 H   0  0  0  0  0  0  0  0  0  0  0  0
   -5.9885    1.1371   -1.3848 H   0  0  0  0  0  0  0  0  0  0  0  0
   -8.2568   -2.3871   -1.3037 H   0  0  0  0  0  0  0  0  0  0  0  0
   -9.5660    1.0184   -0.2801 H   0  0  0  0  0  0  0  0  0  0  0  0
   -7.9780    0.8816    0.5253 H   0  0  0  0  0  0  0  0  0  0  0  0
   -9.9764    1.6295    1.9360 H   0  0  0  0  0  0  0  0  0  0  0  0
   -8.7787    0.4878    2.5899 H   0  0  0  0  0  0  0  0  0  0  0  0
  -10.7800   -0.4728    3.2633 H   0  0  0  0  0  0  0  0  0  0  0  0
  -14.0701   -0.2742    2.3205 H   0  0  0  0  0  0  0  0  0  0  0  0
  -13.3850   -1.4070    1.1375 H   0  0  0  0  0  0  0  0  0  0  0  0
  -12.8458   -1.5094    2.8650 H   0  0  0  0  0  0  0  0  0  0  0  0
  -11.6294   -0.2025   -0.3543 H   0  0  0  0  0  0  0  0  0  0  0  0
  -11.8791    1.5735    0.0563 H   0  0  0  0  0  0  0  0  0  0  0  0
  -13.2429    0.4446   -0.0090 H   0  0  0  0  0  0  0  0  0  0  0  0
  -12.0096    2.3364    1.9773 H   0  0  0  0  0  0  0  0  0  0  0  0
  -12.0624    1.4002    3.5484 H   0  0  0  0  0  0  0  0  0  0  0  0
  -13.5147    1.5401    2.5303 H   0  0  0  0  0  0  0  0  0  0  0  0
  -10.8748   -2.5148    2.3224 H   0  0  0  0  0  0  0  0  0  0  0  0
  -11.2184   -1.9150    0.6681 H   0  0  0  0  0  0  0  0  0  0  0  0
   -8.5263   -1.8331    2.0575 H   0  0  0  0  0  0  0  0  0  0  0  0
   -9.0235   -3.0336    0.7821 H   0  0  0  0  0  0  0  0  0  0  0  0
   -3.3625   -1.6167   -3.8358 H   0  0  0  0  0  0  0  0  0  0  0  0
   -0.9378   -1.2595   -3.6927 H   0  0  0  0  0  0  0  0  0  0  0  0
    0.1931    2.6725   -1.9092 H   0  0  0  0  0  0  0  0  0  0  0  0
    2.6728    3.0480   -1.7599 H   0  0  0  0  0  0  0  0  0  0  0  0
    8.4204   -0.5749    2.2496 H   0  0  0  0  0  0  0  0  0  0  0  0
    8.5398    1.1920    2.1708 H   0  0  0  0  0  0  0  0  0  0  0  0
   10.7909    1.2645    2.0430 H   0  0  0  0  0  0  0  0  0  0  0  0
   10.5692   -0.2148    3.0114 H   0  0  0  0  0  0  0  0  0  0  0  0
  1  2  1  0
  2  3  1  0
  2  4  1  0
  2  5  1  0
  5  6  1  0
  6  7  1  0
  7  8  1  0
  8  9  2  3
  9 10  1  0
 10 11  1  0
 11 12  2  0
 12 13  1  0
 13 14  2  0
 14 15  1  0
 15 16  2  0
 16 17  1  0
 17 18  2  0
 18 19  1  0
 19 20  2  0
 20 21  1  0
 21 22  2  0
 22 23  1  0
 23 24  1  0
 24 25  2  3
 25 26  1  0
 26 27  1  0
 27 28  1  0
 28 29  1  0
 29 30  1  0
 29 31  1  0
 29 32  1  0
 28 33  1  0
 33 34  1  0
 20 35  1  0
 35 36  2  0
 16 37  1  0
 37 38  2  0
  8 39  1  0
 39 40  1  0
 40  5  1  0
 38 13  1  0
 36 17  1  0
 34 25  1  0
  1 41  1  0
  1 42  1  0
  1 43  1  0
  3 44  1  0
  3 45  1  0
  3 46  1  0
  4 47  1  0
  4 48  1  0
  4 49  1  0
  5 50  1  0
  6 51  1  0
  6 52  1  0
  7 53  1  0
  7 54  1  0
  9 55  1  0
 11 56  1  0
 12 57  1  0
 14 58  1  0
 15 59  1  0
 18 60  1  0
 19 61  1  0
 21 62  1  0
 22 63  1  0
 24 64  1  0
 26 65  1  0
 26 66  1  0
 27 67  1  0
 27 68  1  0
 28 69  1  0
 30 70  1  0
 30 71  1  0
 30 72  1  0
 31 73  1  0
 31 74  1  0
 31 75  1  0
 32 76  1  0
 32 77  1  0
 32 78  1  0
 33 79  1  0
 33 80  1  0
 34 81  1  0
 34 82  1  0
 35 83  1  0
 36 84  1  0
 37 85  1  0
 38 86  1  0
 39 87  1  0
 39 88  1  0
 40 89  1  0
 40 90  1  0
M  END
