
     RDKit          3D

 50 52  0  0  0  0  0  0  0  0999 V2000
    6.0627   -1.4208   -0.6886 C   0  0  0  0  0  0  0  0  0  0  0  0
    5.2417   -1.2309   -2.2784 S   0  0  0  0  0  0  0  0  0  0  0  0
    3.4767   -1.0614   -1.9063 C   0  0  0  0  0  0  0  0  0  0  0  0
    3.0562   -0.3379   -0.9101 C   0  0  0  0  0  0  0  0  0  0  0  0
    1.6625   -0.1730   -0.5751 C   0  0  0  0  0  0  0  0  0  0  0  0
    1.2841    0.6079    0.4939 C   0  0  0  0  0  0  0  0  0  0  0  0
   -0.0333    0.8038    0.8637 C   0  0  0  0  0  0  0  0  0  0  0  0
   -1.0133    0.1889    0.1283 C   0  0  0  0  0  0  0  0  0  0  0  0
   -2.4342    0.3216    0.4230 C   0  0  0  0  0  0  0  0  0  0  0  0
   -2.9114    1.0404    1.4176 C   0  0  0  0  0  0  0  0  0  0  0  0
   -4.7042    1.0968    1.6418 S   0  0  0  0  0  0  0  0  0  0  0  0
   -5.4365   -0.3139    0.8001 C   0  0  0  0  0  0  0  0  0  0  0  0
   -6.6279   -0.2516    0.2497 C   0  0  0  0  0  0  0  0  0  0  0  0
   -7.3432   -1.3256   -0.4669 C   0  0  0  0  0  0  0  0  0  0  0  0
   -8.8039   -1.0568   -0.1405 C   0  0  0  0  0  0  0  0  0  0  0  0
   -8.8733    0.2929    0.4954 C   0  0  0  0  0  0  0  0  0  0  0  0
   -7.5079    0.9342    0.2391 C   0  0  0  0  0  0  0  0  0  0  0  0
   -0.6605   -0.6041   -0.9545 C   0  0  0  0  0  0  0  0  0  0  0  0
    0.6745   -0.7848   -1.3058 C   0  0  0  0  0  0  0  0  0  0  0  0
    6.7147   -0.4162   -0.1489 C   0  0  0  0  0  0  0  0  0  0  0  0
    6.8640    0.9304   -0.7235 C   0  0  0  0  0  0  0  0  0  0  0  0
    8.0365    1.5422    0.0454 C   0  0  0  0  0  0  0  0  0  0  0  0
    7.8026    0.9360    1.4291 C   0  0  0  0  0  0  0  0  0  0  0  0
    7.4195   -0.4965    1.1641 C   0  0  0  0  0  0  0  0  0  0  0  0
    5.9817   -2.4022   -0.2201 H   0  0  0  0  0  0  0  0  0  0  0  0
    2.8102   -1.5880   -2.5505 H   0  0  0  0  0  0  0  0  0  0  0  0
    3.8137    0.1722   -0.2955 H   0  0  0  0  0  0  0  0  0  0  0  0
    2.0321    1.1134    1.1031 H   0  0  0  0  0  0  0  0  0  0  0  0
   -0.2977    1.4276    1.7145 H   0  0  0  0  0  0  0  0  0  0  0  0
   -3.1533   -0.2111   -0.2249 H   0  0  0  0  0  0  0  0  0  0  0  0
   -2.2454    1.5630    2.0566 H   0  0  0  0  0  0  0  0  0  0  0  0
   -4.8136   -1.2186    0.7849 H   0  0  0  0  0  0  0  0  0  0  0  0
   -7.0230   -2.3400   -0.1452 H   0  0  0  0  0  0  0  0  0  0  0  0
   -7.1936   -1.2545   -1.5715 H   0  0  0  0  0  0  0  0  0  0  0  0
   -9.1150   -1.8790    0.5652 H   0  0  0  0  0  0  0  0  0  0  0  0
   -9.4249   -1.1225   -1.0733 H   0  0  0  0  0  0  0  0  0  0  0  0
   -8.9412    0.1787    1.6131 H   0  0  0  0  0  0  0  0  0  0  0  0
   -9.6973    0.9204    0.1442 H   0  0  0  0  0  0  0  0  0  0  0  0
   -7.2449    1.6670    1.0221 H   0  0  0  0  0  0  0  0  0  0  0  0
   -7.5030    1.3681   -0.7835 H   0  0  0  0  0  0  0  0  0  0  0  0
   -1.4113   -1.1014   -1.5527 H   0  0  0  0  0  0  0  0  0  0  0  0
    0.8759   -1.4200   -2.1664 H   0  0  0  0  0  0  0  0  0  0  0  0
    7.0560    0.9350   -1.8141 H   0  0  0  0  0  0  0  0  0  0  0  0
    5.9882    1.5654   -0.4837 H   0  0  0  0  0  0  0  0  0  0  0  0
    8.9860    1.1941   -0.3899 H   0  0  0  0  0  0  0  0  0  0  0  0
    7.9649    2.6474    0.0811 H   0  0  0  0  0  0  0  0  0  0  0  0
    8.6684    1.0554    2.0855 H   0  0  0  0  0  0  0  0  0  0  0  0
    6.9326    1.4863    1.8564 H   0  0  0  0  0  0  0  0  0  0  0  0
    6.7336   -0.8063    1.9788 H   0  0  0  0  0  0  0  0  0  0  0  0
    8.2751   -1.1723    1.0932 H   0  0  0  0  0  0  0  0  0  0  0  0
  1  2  1  0
  2  3  1  0
  3  4  2  0
  4  5  1  0
  5  6  2  0
  6  7  1  0
  7  8  2  0
  8  9  1  0
  9 10  2  0
 10 11  1  0
 11 12  1  0
 12 13  2  3
 13 14  1  0
 14 15  1  0
 15 16  1  0
 16 17  1  0
  8 18  1  0
 18 19  2  0
  1 20  2  3
 20 21  1  0
 21 22  1  0
 22 23  1  0
 23 24  1  0
 19  5  1  0
 24 20  1  0
 17 13  1  0
  1 25  1  0
  3 26  1  0
  4 27  1  0
  6 28  1  0
  7 29  1  0
  9 30  1  0
 10 31  1  0
 12 32  1  0
 14 33  1  0
 14 34  1  0
 15 35  1  0
 15 36  1  0
 16 37  1  0
 16 38  1  0
 17 39  1  0
 17 40  1  0
 18 41  1  0
 19 42  1  0
 21 43  1  0
 21 44  1  0
 22 45  1  0
 22 46  1  0
 23 47  1  0
 23 48  1  0
 24 49  1  0
 24 50  1  0
M  END
