
     RDKit          3D

 48 50  0  0  0  0  0  0  0  0999 V2000
   -5.4478   -3.0412   -0.1383 C   0  0  0  0  0  0  0  0  0  0  0  0
   -4.6017   -2.3163    0.8912 C   0  0  0  0  0  0  0  0  0  0  0  0
   -4.7533   -0.8306    0.7865 N   0  0  0  0  0  0  0  0  0  0  0  0
   -6.0354   -0.3750    1.1644 C   0  0  0  0  0  0  0  0  0  0  0  0
   -6.4078    1.0176    1.3415 C   0  0  0  0  0  0  0  0  0  0  0  0
   -3.6334   -0.0970    0.3121 C   0  0  0  0  0  0  0  0  0  0  0  0
   -3.7947    1.2226   -0.0586 C   0  0  0  0  0  0  0  0  0  0  0  0
   -2.6890    1.9504   -0.5194 C   0  0  0  0  0  0  0  0  0  0  0  0
   -1.4510    1.3803   -0.6104 C   0  0  0  0  0  0  0  0  0  0  0  0
   -0.3509    2.1038   -1.0780 C   0  0  0  0  0  0  0  0  0  0  0  0
    0.8690    1.4943   -1.1697 C   0  0  0  0  0  0  0  0  0  0  0  0
    2.0263    2.3240   -1.4760 C   0  0  0  0  0  0  0  0  0  0  0  0
    2.9975    3.0031   -1.7469 N   0  0  0  0  0  0  0  0  0  0  0  0
    0.9815    0.1936   -0.8093 C   0  0  0  0  0  0  0  0  0  0  0  0
    2.1017   -0.4113   -0.9243 N   0  0  0  0  0  0  0  0  0  0  0  0
    3.3159   -0.0463   -1.3729 C   0  0  0  0  0  0  0  0  0  0  0  0
    3.2884    0.3308   -2.6491 O   0  0  0  0  0  0  0  0  0  0  0  0
    4.6087   -0.0064   -0.7715 C   0  0  0  0  0  0  0  0  0  0  0  0
    5.7247    0.2447   -1.6580 C   0  0  0  0  0  0  0  0  0  0  0  0
    6.9873    0.2334   -1.1692 C   0  0  0  0  0  0  0  0  0  0  0  0
    7.3217    0.0083    0.1145 C   0  0  0  0  0  0  0  0  0  0  0  0
    8.7791   -0.0722    0.5269 C   0  0  0  0  0  0  0  0  0  0  0  0
    6.2761   -0.2245    0.9846 C   0  0  0  0  0  0  0  0  0  0  0  0
    4.9622   -0.2297    0.5376 C   0  0  0  0  0  0  0  0  0  0  0  0
   -0.0766   -0.5106   -0.3442 O   0  0  0  0  0  0  0  0  0  0  0  0
   -1.2440    0.0702   -0.2541 C   0  0  0  0  0  0  0  0  0  0  0  0
   -2.3645   -0.6322    0.2071 C   0  0  0  0  0  0  0  0  0  0  0  0
   -4.7834   -3.7353   -0.6844 H   0  0  0  0  0  0  0  0  0  0  0  0
   -5.8758   -2.3783   -0.9165 H   0  0  0  0  0  0  0  0  0  0  0  0
   -6.2067   -3.6751    0.3987 H   0  0  0  0  0  0  0  0  0  0  0  0
   -5.0443   -2.5453    1.9182 H   0  0  0  0  0  0  0  0  0  0  0  0
   -3.5772   -2.6247    0.9495 H   0  0  0  0  0  0  0  0  0  0  0  0
   -6.2947   -0.9396    2.1487 H   0  0  0  0  0  0  0  0  0  0  0  0
   -6.7842   -0.8291    0.4051 H   0  0  0  0  0  0  0  0  0  0  0  0
   -5.7435    1.6803    1.9158 H   0  0  0  0  0  0  0  0  0  0  0  0
   -7.3449    1.0459    2.0604 H   0  0  0  0  0  0  0  0  0  0  0  0
   -6.8776    1.4899    0.4407 H   0  0  0  0  0  0  0  0  0  0  0  0
   -4.7171    1.7584   -0.0715 H   0  0  0  0  0  0  0  0  0  0  0  0
   -2.8462    2.9999   -0.8116 H   0  0  0  0  0  0  0  0  0  0  0  0
   -0.4976    3.1106   -1.3222 H   0  0  0  0  0  0  0  0  0  0  0  0
    5.4754    0.4108   -2.6836 H   0  0  0  0  0  0  0  0  0  0  0  0
    7.7877    0.4197   -1.9095 H   0  0  0  0  0  0  0  0  0  0  0  0
    9.3550    0.7951    0.2206 H   0  0  0  0  0  0  0  0  0  0  0  0
    9.0986   -1.0484   -0.0058 H   0  0  0  0  0  0  0  0  0  0  0  0
    8.9160   -0.2870    1.5789 H   0  0  0  0  0  0  0  0  0  0  0  0
    6.5511   -0.3899    2.0349 H   0  0  0  0  0  0  0  0  0  0  0  0
    4.1619   -0.3925    1.2308 H   0  0  0  0  0  0  0  0  0  0  0  0
   -2.1426   -1.6492    0.4723 H   0  0  0  0  0  0  0  0  0  0  0  0
  1  2  1  0
  2  3  1  0
  3  4  1  0
  4  5  1  0
  3  6  1  0
  6  7  2  0
  7  8  1  0
  8  9  2  0
  9 10  1  0
 10 11  2  0
 11 12  1  0
 12 13  3  0
 11 14  1  0
 14 15  2  0
 15 16  1  0
 16 17  2  0
 16 18  1  0
 18 19  2  0
 19 20  1  0
 20 21  2  0
 21 22  1  0
 21 23  1  0
 23 24  2  0
 14 25  1  0
 25 26  1  0
 26 27  2  0
 27  6  1  0
 26  9  1  0
 24 18  1  0
  1 28  1  0
  1 29  1  0
  1 30  1  0
  2 31  1  0
  2 32  1  0
  4 33  1  0
  4 34  1  0
  5 35  1  0
  5 36  1  0
  5 37  1  0
  7 38  1  0
  8 39  1  0
 10 40  1  0
 19 41  1  0
 20 42  1  0
 22 43  1  0
 22 44  1  0
 22 45  1  0
 23 46  1  0
 24 47  1  0
 27 48  1  0
M  END
