
     RDKit          3D

 17 18  0  0  0  0  0  0  0  0999 V2000
   -2.6833   -2.9814    2.0255 N   0  0  0  0  0  0  0  0  0  0  0  0
   -2.0815   -2.1571    1.4767 C   0  0  0  0  0  0  0  0  0  0  0  0
   -1.3164   -1.1159    0.8104 C   0  0  0  0  0  0  0  0  0  0  0  0
   -1.9304    0.0312    0.3630 C   0  0  0  0  0  0  0  0  0  0  0  0
   -1.2252    1.0311   -0.2710 C   0  0  0  0  0  0  0  0  0  0  0  0
    0.1426    0.8717   -0.4612 C   0  0  0  0  0  0  0  0  0  0  0  0
    1.0762    1.6891   -1.0497 C   0  0  0  0  0  0  0  0  0  0  0  0
    2.3030    1.0618   -0.9803 C   0  0  0  0  0  0  0  0  0  0  0  0
    2.0780   -0.1078   -0.3567 N   0  0  0  0  0  0  0  0  0  0  0  0
    0.7991   -0.2634   -0.0281 C   0  0  0  0  0  0  0  0  0  0  0  0
    0.0394   -1.2372    0.6037 C   0  0  0  0  0  0  0  0  0  0  0  0
   -3.0086    0.0979    0.5421 H   0  0  0  0  0  0  0  0  0  0  0  0
   -1.7490    1.9101   -0.6033 H   0  0  0  0  0  0  0  0  0  0  0  0
    0.9356    2.6711   -1.5084 H   0  0  0  0  0  0  0  0  0  0  0  0
    3.2580    1.4501   -1.3605 H   0  0  0  0  0  0  0  0  0  0  0  0
    2.8298   -0.8190   -0.1524 H   0  0  0  0  0  0  0  0  0  0  0  0
    0.5326   -2.1323    0.9501 H   0  0  0  0  0  0  0  0  0  0  0  0
  1  2  3  0
  2  3  1  0
  3  4  2  0
  4  5  1  0
  5  6  2  0
  6  7  1  0
  7  8  2  0
  8  9  1  0
  9 10  1  0
 10 11  2  0
 11  3  1  0
 10  6  1  0
  4 12  1  0
  5 13  1  0
  7 14  1  0
  8 15  1  0
  9 16  1  0
 11 17  1  0
M  END
