
     RDKit          3D

 45 49  0  0  0  0  0  0  0  0999 V2000
   -2.0301   -3.0263    2.7219 C   0  0  0  0  0  0  0  0  0  0  0  0
   -1.9060   -2.0139    1.6420 N   0  0  0  0  0  0  0  0  0  0  0  0
   -1.0247   -1.0036    1.5923 C   0  0  0  0  0  0  0  0  0  0  0  0
   -1.1894   -0.2422    0.4816 C   0  0  0  0  0  0  0  0  0  0  0  0
   -0.6122    0.9829   -0.0133 C   0  0  0  0  0  0  0  0  0  0  0  0
   -1.4647    2.1274    0.2248 N   0  0  0  0  0  0  0  0  0  0  0  0
   -1.0350    3.1992   -0.4864 C   0  0  0  0  0  0  0  0  0  0  0  0
   -1.8041    4.3573   -0.2350 C   0  0  0  0  0  0  0  0  0  0  0  0
   -1.5480    5.5439   -0.8226 C   0  0  0  0  0  0  0  0  0  0  0  0
   -0.4639    5.5938   -1.7058 C   0  0  0  0  0  0  0  0  0  0  0  0
    0.3062    4.4328   -1.9501 C   0  0  0  0  0  0  0  0  0  0  0  0
   -0.0296    3.2792   -1.3005 C   0  0  0  0  0  0  0  0  0  0  0  0
    0.8467    2.1532   -1.5604 N   0  0  0  0  0  0  0  0  0  0  0  0
    0.3997    1.0664   -0.8152 C   0  0  0  0  0  0  0  0  0  0  0  0
    1.5515    0.1806   -0.4925 C   0  0  0  0  0  0  0  0  0  0  0  0
    2.5840   -0.5961   -0.1934 C   0  0  0  0  0  0  0  0  0  0  0  0
    3.9572   -1.6458    0.1843 C   0  0  0  0  0  0  0  0  0  0  0  0
    4.3499   -1.4351   -0.9626 C   0  0  0  0  0  0  0  0  0  0  0  0
    5.8570   -1.7365   -0.5682 C   0  0  0  0  0  0  0  0  0  0  0  0
    5.9252   -2.0793    0.7990 C   0  0  0  0  0  0  0  0  0  0  0  0
    5.0505   -2.1941    1.8111 C   0  0  0  0  0  0  0  0  0  0  0  0
    3.4290   -1.8371    1.3439 C   0  0  0  0  0  0  0  0  0  0  0  0
   -2.2977   -0.8524   -0.1824 C   0  0  0  0  0  0  0  0  0  0  0  0
   -2.9713   -0.5050   -1.3169 C   0  0  0  0  0  0  0  0  0  0  0  0
   -4.0516   -1.2424   -1.7386 C   0  0  0  0  0  0  0  0  0  0  0  0
   -4.4726   -2.3645   -1.0024 C   0  0  0  0  0  0  0  0  0  0  0  0
   -3.7903   -2.6953    0.1433 C   0  0  0  0  0  0  0  0  0  0  0  0
   -2.7199   -1.9451    0.5489 C   0  0  0  0  0  0  0  0  0  0  0  0
   -1.9752   -2.4035    3.6364 H   0  0  0  0  0  0  0  0  0  0  0  0
   -3.0130   -3.5127    2.6821 H   0  0  0  0  0  0  0  0  0  0  0  0
   -1.2388   -3.7331    2.6047 H   0  0  0  0  0  0  0  0  0  0  0  0
   -0.3259   -0.8698    2.4194 H   0  0  0  0  0  0  0  0  0  0  0  0
   -2.6257    4.2748    0.4302 H   0  0  0  0  0  0  0  0  0  0  0  0
   -2.0385    6.4369   -0.6328 H   0  0  0  0  0  0  0  0  0  0  0  0
   -0.1619    6.4368   -2.2512 H   0  0  0  0  0  0  0  0  0  0  0  0
    1.1222    4.4174   -2.6390 H   0  0  0  0  0  0  0  0  0  0  0  0
    4.2880   -1.1748   -1.9087 H   0  0  0  0  0  0  0  0  0  0  0  0
    6.5330   -1.6215   -1.3386 H   0  0  0  0  0  0  0  0  0  0  0  0
    7.0797   -2.2628    1.0247 H   0  0  0  0  0  0  0  0  0  0  0  0
    5.1641   -2.4515    2.7492 H   0  0  0  0  0  0  0  0  0  0  0  0
    3.1162   -1.9617    2.3308 H   0  0  0  0  0  0  0  0  0  0  0  0
   -2.6923    0.3547   -1.9109 H   0  0  0  0  0  0  0  0  0  0  0  0
   -4.6636   -0.9637   -2.5990 H   0  0  0  0  0  0  0  0  0  0  0  0
   -5.3271   -2.8924   -1.4253 H   0  0  0  0  0  0  0  0  0  0  0  0
   -4.0868   -3.5754    0.6814 H   0  0  0  0  0  0  0  0  0  0  0  0
  1  2  1  0
  2  3  1  0
  3  4  2  0
  4  5  1  0
  5  6  2  0
  6  7  1  0
  7  8  2  0
  8  9  1  0
  9 10  2  0
 10 11  1  0
 11 12  2  0
 12 13  1  0
 13 14  2  0
 14 15  1  0
 15 16  3  0
 16 17  1  0
 17 18  2  0
 18 19  1  0
 19 20  2  0
 20 21  1  0
 21 22  2  0
  4 23  1  0
 23 24  2  0
 24 25  1  0
 25 26  2  0
 26 27  1  0
 27 28  2  0
 28  2  1  0
 14  5  1  0
 22 17  1  0
 28 23  1  0
 12  7  1  0
  1 29  1  0
  1 30  1  0
  1 31  1  0
  3 32  1  0
  8 33  1  0
  9 34  1  0
 10 35  1  0
 11 36  1  0
 18 37  1  0
 19 38  1  0
 20 39  1  0
 21 40  1  0
 22 41  1  0
 24 42  1  0
 25 43  1  0
 26 44  1  0
 27 45  1  0
M  END
