
     RDKit          3D

 57 60  0  0  0  0  0  0  0  0999 V2000
    9.3676    1.2266   -0.4694 C   0  0  0  0  0  0  0  0  0  0  0  0
    8.9917    0.1633    0.5022 C   0  0  0  0  0  0  0  0  0  0  0  0
    9.8752   -0.4625    1.1368 O   0  0  0  0  0  0  0  0  0  0  0  0
    7.5762   -0.1421    0.7070 C   0  0  0  0  0  0  0  0  0  0  0  0
    7.2195   -1.1234    1.6032 C   0  0  0  0  0  0  0  0  0  0  0  0
    5.8803   -1.3935    1.7795 C   0  0  0  0  0  0  0  0  0  0  0  0
    4.8676   -0.7213    1.0945 C   0  0  0  0  0  0  0  0  0  0  0  0
    3.4854   -1.0568    1.3299 C   0  0  0  0  0  0  0  0  0  0  0  0
    2.4860   -0.4438    0.7004 C   0  0  0  0  0  0  0  0  0  0  0  0
    1.1352   -0.8596    1.0126 C   0  0  0  0  0  0  0  0  0  0  0  0
    0.1064   -0.2933    0.4252 C   0  0  0  0  0  0  0  0  0  0  0  0
   -1.2726   -0.6671    0.6965 C   0  0  0  0  0  0  0  0  0  0  0  0
   -1.5892   -1.6010    1.5497 N   0  0  0  0  0  0  0  0  0  0  0  0
   -2.9960   -1.7196    1.5753 C   0  0  0  0  0  0  0  0  0  0  0  0
   -3.6738   -1.9882    2.8387 C   0  0  0  0  0  0  0  0  0  0  0  0
   -3.1406   -2.2117    3.9189 O   0  0  0  0  0  0  0  0  0  0  0  0
   -5.1200   -1.9640    2.6818 N   0  0  0  0  0  0  0  0  0  0  0  0
   -5.5703   -0.9954    1.7091 C   0  0  0  0  0  0  0  0  0  0  0  0
   -6.9811   -0.9374    1.5090 N   0  0  0  0  0  0  0  0  0  0  0  0
   -4.7759   -0.2253    1.0540 N   0  0  0  0  0  0  0  0  0  0  0  0
   -3.4007   -0.2694    1.2479 C   0  0  0  0  0  0  0  0  0  0  0  0
   -2.4946   -0.1129    0.1473 N   0  0  0  0  0  0  0  0  0  0  0  0
   -2.6119    0.4134   -1.1575 C   0  0  1  0  0  0  0  0  0  0  0  0
   -3.6598   -0.3250   -2.0018 C   0  0  0  0  0  0  0  0  0  0  0  0
   -3.7685    0.6707   -3.1599 C   0  0  2  0  0  0  0  0  0  0  0  0
   -2.7190    0.4029   -4.0213 O   0  0  0  0  0  0  0  0  0  0  0  0
   -3.5808    1.9778   -2.4279 C   0  0  1  0  0  0  0  0  0  0  0  0
   -4.9365    2.6777   -2.4343 C   0  0  0  0  0  0  0  0  0  0  0  0
   -4.9168    3.8773   -1.7606 O   0  0  0  0  0  0  0  0  0  0  0  0
   -3.1453    1.6993   -1.1598 O   0  0  0  0  0  0  0  0  0  0  0  0
    5.2623    0.2419    0.2174 C   0  0  0  0  0  0  0  0  0  0  0  0
    6.6008    0.5399    0.0149 C   0  0  0  0  0  0  0  0  0  0  0  0
    9.0595    2.2329   -0.0869 H   0  0  0  0  0  0  0  0  0  0  0  0
    8.8313    1.0412   -1.4227 H   0  0  0  0  0  0  0  0  0  0  0  0
   10.4545    1.2514   -0.6426 H   0  0  0  0  0  0  0  0  0  0  0  0
    7.9743   -1.6688    2.1552 H   0  0  0  0  0  0  0  0  0  0  0  0
    5.5582   -2.1598    2.4769 H   0  0  0  0  0  0  0  0  0  0  0  0
    3.2522   -1.8496    2.0574 H   0  0  0  0  0  0  0  0  0  0  0  0
    2.6489    0.3269   -0.0105 H   0  0  0  0  0  0  0  0  0  0  0  0
    0.9380   -1.6267    1.7183 H   0  0  0  0  0  0  0  0  0  0  0  0
    0.3303    0.4884   -0.2943 H   0  0  0  0  0  0  0  0  0  0  0  0
   -3.3729   -2.3344    0.7137 H   0  0  0  0  0  0  0  0  0  0  0  0
   -5.7412   -2.5794    3.2317 H   0  0  0  0  0  0  0  0  0  0  0  0
   -7.5062   -0.1074    1.8727 H   0  0  0  0  0  0  0  0  0  0  0  0
   -7.5231   -1.6648    1.0258 H   0  0  0  0  0  0  0  0  0  0  0  0
   -3.0461    0.3295    2.1434 H   0  0  0  0  0  0  0  0  0  0  0  0
   -1.6812    0.3887   -1.7473 H   0  0  0  0  0  0  0  0  0  0  0  0
   -3.3078   -1.3015   -2.3343 H   0  0  0  0  0  0  0  0  0  0  0  0
   -4.5818   -0.3210   -1.4155 H   0  0  0  0  0  0  0  0  0  0  0  0
   -4.7542    0.5934   -3.6599 H   0  0  0  0  0  0  0  0  0  0  0  0
   -1.9432    1.0102   -3.8909 H   0  0  0  0  0  0  0  0  0  0  0  0
   -2.8467    2.6341   -2.9363 H   0  0  0  0  0  0  0  0  0  0  0  0
   -5.7249    2.0085   -2.0353 H   0  0  0  0  0  0  0  0  0  0  0  0
   -5.2042    2.8399   -3.5150 H   0  0  0  0  0  0  0  0  0  0  0  0
   -5.7651    3.9597   -1.2562 H   0  0  0  0  0  0  0  0  0  0  0  0
    4.5533    0.8186   -0.3612 H   0  0  0  0  0  0  0  0  0  0  0  0
    6.8976    1.3122   -0.6895 H   0  0  0  0  0  0  0  0  0  0  0  0
  1  2  1  0
  2  3  2  0
  2  4  1  0
  4  5  2  0
  5  6  1  0
  6  7  2  0
  7  8  1  0
  8  9  2  0
  9 10  1  0
 10 11  2  0
 11 12  1  0
 12 13  2  0
 13 14  1  0
 14 15  1  0
 15 16  2  0
 15 17  1  0
 17 18  1  0
 18 19  1  0
 18 20  2  0
 20 21  1  0
 21 22  1  0
 22 23  1  0
 23 24  1  0
 24 25  1  0
 25 26  1  0
 25 27  1  0
 27 28  1  0
 28 29  1  0
 27 30  1  0
  7 31  1  0
 31 32  2  0
 32  4  1  0
 22 12  1  0
 30 23  1  0
 21 14  1  0
  1 33  1  0
  1 34  1  0
  1 35  1  0
  5 36  1  0
  6 37  1  0
  8 38  1  0
  9 39  1  0
 10 40  1  0
 11 41  1  0
 14 42  1  0
 17 43  1  0
 19 44  1  0
 19 45  1  0
 21 46  1  0
 23 47  1  6
 24 48  1  0
 24 49  1  0
 25 50  1  6
 26 51  1  0
 27 52  1  6
 28 53  1  0
 28 54  1  0
 29 55  1  0
 31 56  1  0
 32 57  1  0
M  END
