
     RDKit          3D

 42 45  0  0  0  0  0  0  0  0999 V2000
   -0.3157    3.6630   -0.6362 C   0  0  0  0  0  0  0  0  0  0  0  0
   -0.3632    2.8206    0.5014 O   0  0  0  0  0  0  0  0  0  0  0  0
   -0.7681    1.5048    0.4519 C   0  0  0  0  0  0  0  0  0  0  0  0
   -2.1286    1.2573    0.6075 C   0  0  0  0  0  0  0  0  0  0  0  0
   -3.0438    2.2818    0.7980 C   0  0  0  0  0  0  0  0  0  0  0  0
   -4.3854    2.0150    0.9435 C   0  0  0  0  0  0  0  0  0  0  0  0
   -4.7863    0.7091    0.8959 C   0  0  0  0  0  0  0  0  0  0  0  0
   -3.8905   -0.3170    0.7078 C   0  0  0  0  0  0  0  0  0  0  0  0
   -2.5239   -0.0618    0.5578 C   0  0  0  0  0  0  0  0  0  0  0  0
   -1.6241   -1.1032    0.3625 C   0  0  0  0  0  0  0  0  0  0  0  0
   -2.1065   -2.3809    0.3328 O   0  0  0  0  0  0  0  0  0  0  0  0
   -2.5880   -3.1399   -0.7107 C   0  0  0  0  0  0  0  0  0  0  0  0
   -0.2835   -0.8179    0.2121 C   0  0  0  0  0  0  0  0  0  0  0  0
    0.1582    0.5137    0.2576 C   0  0  0  0  0  0  0  0  0  0  0  0
    1.5337    0.5080    0.0953 C   0  0  0  0  0  0  0  0  0  0  0  0
    2.4987    1.4938    0.0653 C   0  0  0  0  0  0  0  0  0  0  0  0
    3.8245    1.1774   -0.1063 C   0  0  0  0  0  0  0  0  0  0  0  0
    4.1934   -0.1307   -0.2480 C   0  0  0  0  0  0  0  0  0  0  0  0
    5.6474   -0.4804   -0.4325 C   0  0  0  0  0  0  0  0  0  0  0  0
    5.8760   -1.8249   -0.3034 F   0  0  0  0  0  0  0  0  0  0  0  0
    6.0290   -0.0385   -1.6580 F   0  0  0  0  0  0  0  0  0  0  0  0
    6.3921    0.1871    0.5265 F   0  0  0  0  0  0  0  0  0  0  0  0
    3.2264   -1.1385   -0.2197 C   0  0  0  0  0  0  0  0  0  0  0  0
    1.9134   -0.8068   -0.0482 C   0  0  0  0  0  0  0  0  0  0  0  0
    0.8002   -1.5956    0.0243 N   0  0  0  0  0  0  0  0  0  0  0  0
    0.8129   -3.0523   -0.0900 C   0  0  0  0  0  0  0  0  0  0  0  0
   -0.9035    4.5992   -0.4854 H   0  0  0  0  0  0  0  0  0  0  0  0
    0.7115    4.0059   -0.8289 H   0  0  0  0  0  0  0  0  0  0  0  0
   -0.6643    3.1348   -1.5495 H   0  0  0  0  0  0  0  0  0  0  0  0
   -2.7238    3.3170    0.8369 H   0  0  0  0  0  0  0  0  0  0  0  0
   -5.1042    2.8373    1.0909 H   0  0  0  0  0  0  0  0  0  0  0  0
   -5.8495    0.4407    1.0105 H   0  0  0  0  0  0  0  0  0  0  0  0
   -4.2469   -1.3308    0.6744 H   0  0  0  0  0  0  0  0  0  0  0  0
   -1.8611   -3.9427   -0.9918 H   0  0  0  0  0  0  0  0  0  0  0  0
   -2.8352   -2.5549   -1.6174 H   0  0  0  0  0  0  0  0  0  0  0  0
   -3.4984   -3.6904   -0.3192 H   0  0  0  0  0  0  0  0  0  0  0  0
    2.2250    2.5245    0.1801 H   0  0  0  0  0  0  0  0  0  0  0  0
    4.5889    1.9361   -0.1289 H   0  0  0  0  0  0  0  0  0  0  0  0
    3.5530   -2.1740   -0.3403 H   0  0  0  0  0  0  0  0  0  0  0  0
    0.2045   -3.5525    0.6717 H   0  0  0  0  0  0  0  0  0  0  0  0
    1.8490   -3.4327    0.0014 H   0  0  0  0  0  0  0  0  0  0  0  0
    0.4570   -3.3610   -1.0917 H   0  0  0  0  0  0  0  0  0  0  0  0
  1  2  1  0
  2  3  1  0
  3  4  2  0
  4  5  1  0
  5  6  2  0
  6  7  1  0
  7  8  2  0
  8  9  1  0
  9 10  2  0
 10 11  1  0
 11 12  1  0
 10 13  1  0
 13 14  2  0
 14 15  1  0
 15 16  2  0
 16 17  1  0
 17 18  2  0
 18 19  1  0
 19 20  1  0
 19 21  1  0
 19 22  1  0
 18 23  1  0
 23 24  2  0
 24 25  1  0
 25 26  1  0
 14  3  1  0
 24 15  1  0
  9  4  1  0
 25 13  1  0
  1 27  1  0
  1 28  1  0
  1 29  1  0
  5 30  1  0
  6 31  1  0
  7 32  1  0
  8 33  1  0
 12 34  1  0
 12 35  1  0
 12 36  1  0
 16 37  1  0
 17 38  1  0
 23 39  1  0
 26 40  1  0
 26 41  1  0
 26 42  1  0
M  END
