
     RDKit          3D

 66 70  0  0  0  0  0  0  0  0999 V2000
    8.2613   -1.6767    3.0709 C   0  0  0  0  0  0  0  0  0  0  0  0
    8.6414   -0.6008    2.1003 C   0  0  0  0  0  0  0  0  0  0  0  0
    7.5373   -0.3852    1.0637 C   0  0  0  0  0  0  0  0  0  0  0  0
    6.2466    0.0244    1.7522 C   0  0  0  0  0  0  0  0  0  0  0  0
    5.1953    0.2235    0.6947 C   0  0  0  0  0  0  0  0  0  0  0  0
    3.8856    0.6336    1.3301 C   0  0  0  0  0  0  0  0  0  0  0  0
    2.9182    0.8093    0.2606 N   0  0  0  0  0  0  0  0  0  0  0  0
    2.8110    2.0972   -0.3225 C   0  0  0  0  0  0  0  0  0  0  0  0
    3.5142    3.0676    0.0527 O   0  0  0  0  0  0  0  0  0  0  0  0
    1.8365    2.2552   -1.3929 C   0  0  0  0  0  0  0  0  0  0  0  0
    1.7107    3.5060   -1.9819 C   0  0  0  0  0  0  0  0  0  0  0  0
    0.8000    3.6591   -2.9843 C   0  0  0  0  0  0  0  0  0  0  0  0
    0.0024    2.6113   -3.4294 C   0  0  0  0  0  0  0  0  0  0  0  0
    0.1364    1.3601   -2.8318 C   0  0  0  0  0  0  0  0  0  0  0  0
   -0.6416    0.3215   -3.2600 C   0  0  0  0  0  0  0  0  0  0  0  0
   -0.5706   -0.9455   -2.7223 C   0  0  0  0  0  0  0  0  0  0  0  0
   -1.3231   -1.9624   -3.2161 N   0  0  0  0  0  0  0  0  0  0  0  0
   -2.4475   -2.3512   -2.9103 C   0  0  0  0  0  0  0  0  0  0  0  0
   -3.2951   -1.7872   -1.8878 C   0  0  0  0  0  0  0  0  0  0  0  0
   -4.5695   -2.3597   -1.7065 C   0  0  0  0  0  0  0  0  0  0  0  0
   -5.4596   -1.9188   -0.7708 C   0  0  0  0  0  0  0  0  0  0  0  0
   -5.1812   -0.8722    0.0763 C   0  0  0  0  0  0  0  0  0  0  0  0
   -6.1263   -0.4211    1.0529 N   0  0  0  0  0  0  0  0  0  0  0  0
   -5.7907    0.6774    1.9213 C   0  0  0  0  0  0  0  0  0  0  0  0
   -7.0422    1.1923    2.5712 C   0  0  0  0  0  0  0  0  0  0  0  0
   -7.6281    0.0842    3.2259 O   0  0  0  0  0  0  0  0  0  0  0  0
   -8.2943   -0.6172    2.2159 C   0  0  0  0  0  0  0  0  0  0  0  0
   -7.3976   -1.0977    1.1277 C   0  0  0  0  0  0  0  0  0  0  0  0
   -3.9515   -0.2905   -0.0703 C   0  0  0  0  0  0  0  0  0  0  0  0
   -3.0387   -0.7533   -1.0400 C   0  0  0  0  0  0  0  0  0  0  0  0
    0.3562   -1.1235   -1.6940 C   0  0  0  0  0  0  0  0  0  0  0  0
    1.1611   -0.0608   -1.2467 C   0  0  0  0  0  0  0  0  0  0  0  0
    1.0414    1.1847   -1.8271 C   0  0  0  0  0  0  0  0  0  0  0  0
    2.1168   -0.2609   -0.1803 C   0  0  0  0  0  0  0  0  0  0  0  0
    2.2132   -1.4039    0.3385 O   0  0  0  0  0  0  0  0  0  0  0  0
    9.0409   -2.4730    3.1374 H   0  0  0  0  0  0  0  0  0  0  0  0
    7.3188   -2.1714    2.7926 H   0  0  0  0  0  0  0  0  0  0  0  0
    8.2224   -1.2246    4.0971 H   0  0  0  0  0  0  0  0  0  0  0  0
    9.5487   -0.9083    1.5467 H   0  0  0  0  0  0  0  0  0  0  0  0
    8.7983    0.3703    2.6071 H   0  0  0  0  0  0  0  0  0  0  0  0
    7.4230   -1.3369    0.5158 H   0  0  0  0  0  0  0  0  0  0  0  0
    7.8615    0.3864    0.3499 H   0  0  0  0  0  0  0  0  0  0  0  0
    5.9610   -0.6705    2.5411 H   0  0  0  0  0  0  0  0  0  0  0  0
    6.4375    1.0163    2.2120 H   0  0  0  0  0  0  0  0  0  0  0  0
    5.5536    1.0758    0.0519 H   0  0  0  0  0  0  0  0  0  0  0  0
    5.0533   -0.6598    0.0415 H   0  0  0  0  0  0  0  0  0  0  0  0
    3.5742   -0.1538    2.0342 H   0  0  0  0  0  0  0  0  0  0  0  0
    4.0629    1.6069    1.8308 H   0  0  0  0  0  0  0  0  0  0  0  0
    2.3413    4.3213   -1.6250 H   0  0  0  0  0  0  0  0  0  0  0  0
    0.6697    4.6009   -3.4648 H   0  0  0  0  0  0  0  0  0  0  0  0
   -0.7128    2.7172   -4.2114 H   0  0  0  0  0  0  0  0  0  0  0  0
   -1.3583    0.4829   -4.0640 H   0  0  0  0  0  0  0  0  0  0  0  0
   -2.8306   -3.2377   -3.5012 H   0  0  0  0  0  0  0  0  0  0  0  0
   -4.8179   -3.1829   -2.3563 H   0  0  0  0  0  0  0  0  0  0  0  0
   -6.4391   -2.3695   -0.6422 H   0  0  0  0  0  0  0  0  0  0  0  0
   -5.1393    0.2864    2.7470 H   0  0  0  0  0  0  0  0  0  0  0  0
   -5.2917    1.5104    1.3831 H   0  0  0  0  0  0  0  0  0  0  0  0
   -6.8518    1.9927    3.3066 H   0  0  0  0  0  0  0  0  0  0  0  0
   -7.7838    1.5420    1.8099 H   0  0  0  0  0  0  0  0  0  0  0  0
   -8.8924   -1.4335    2.6822 H   0  0  0  0  0  0  0  0  0  0  0  0
   -8.9941    0.1392    1.7521 H   0  0  0  0  0  0  0  0  0  0  0  0
   -7.1884   -2.1896    1.3238 H   0  0  0  0  0  0  0  0  0  0  0  0
   -7.8752   -1.0749    0.1225 H   0  0  0  0  0  0  0  0  0  0  0  0
   -3.6821    0.5324    0.5668 H   0  0  0  0  0  0  0  0  0  0  0  0
   -2.1113   -0.2443   -1.0778 H   0  0  0  0  0  0  0  0  0  0  0  0
    0.4735   -2.0695   -1.2258 H   0  0  0  0  0  0  0  0  0  0  0  0
  1  2  1  0
  2  3  1  0
  3  4  1  0
  4  5  1  0
  5  6  1  0
  6  7  1  0
  7  8  1  0
  8  9  2  0
  8 10  1  0
 10 11  1  0
 11 12  2  0
 12 13  1  0
 13 14  2  0
 14 15  1  0
 15 16  2  0
 16 17  1  0
 17 18  2  0
 18 19  1  0
 19 20  2  0
 20 21  1  0
 21 22  2  0
 22 23  1  0
 23 24  1  0
 24 25  1  0
 25 26  1  0
 26 27  1  0
 27 28  1  0
 22 29  1  0
 29 30  2  0
 16 31  1  0
 31 32  2  0
 32 33  1  0
 32 34  1  0
 34 35  2  0
 34  7  1  0
 33 10  2  0
 33 14  1  0
 30 19  1  0
 28 23  1  0
  1 36  1  0
  1 37  1  0
  1 38  1  0
  2 39  1  0
  2 40  1  0
  3 41  1  0
  3 42  1  0
  4 43  1  0
  4 44  1  0
  5 45  1  0
  5 46  1  0
  6 47  1  0
  6 48  1  0
 11 49  1  0
 12 50  1  0
 13 51  1  0
 15 52  1  0
 18 53  1  0
 20 54  1  0
 21 55  1  0
 24 56  1  0
 24 57  1  0
 25 58  1  0
 25 59  1  0
 27 60  1  0
 27 61  1  0
 28 62  1  0
 28 63  1  0
 29 64  1  0
 30 65  1  0
 31 66  1  0
M  END
