
     RDKit          3D

 46 49  0  0  0  0  0  0  0  0999 V2000
   -1.8299   -2.0430    2.8454 C   0  0  0  0  0  0  0  0  0  0  0  0
   -2.1353   -1.4881    1.5442 O   0  0  0  0  0  0  0  0  0  0  0  0
   -1.4303   -0.3898    1.1005 C   0  0  0  0  0  0  0  0  0  0  0  0
   -1.9317    0.8205    1.6033 C   0  0  0  0  0  0  0  0  0  0  0  0
   -3.0425    0.8330    2.4055 C   0  0  0  0  0  0  0  0  0  0  0  0
   -3.5526    2.0293    2.8932 C   0  0  0  0  0  0  0  0  0  0  0  0
   -2.9270    3.2051    2.5586 C   0  0  0  0  0  0  0  0  0  0  0  0
   -1.8323    3.2126    1.7678 C   0  0  0  0  0  0  0  0  0  0  0  0
   -1.3193    2.0325    1.2790 C   0  0  0  0  0  0  0  0  0  0  0  0
   -0.2158    2.0173    0.4558 C   0  0  0  0  0  0  0  0  0  0  0  0
    0.3816    3.2252    0.1461 O   0  0  0  0  0  0  0  0  0  0  0  0
   -0.0107    4.0088   -0.9714 C   0  0  0  0  0  0  0  0  0  0  0  0
    0.2821    0.8598   -0.0460 C   0  0  0  0  0  0  0  0  0  0  0  0
   -0.3517   -0.3502    0.2893 C   0  0  0  0  0  0  0  0  0  0  0  0
    0.3457   -1.3306   -0.3880 C   0  0  0  0  0  0  0  0  0  0  0  0
    0.1550   -2.6776   -0.4776 C   0  0  0  0  0  0  0  0  0  0  0  0
   -0.9387   -3.4345    0.0641 C   0  0  0  0  0  0  0  0  0  0  0  0
    1.0461   -3.4028   -1.2881 C   0  0  0  0  0  0  0  0  0  0  0  0
    2.0708   -2.8076   -1.9770 C   0  0  0  0  0  0  0  0  0  0  0  0
    2.2383   -1.4628   -1.8784 C   0  0  0  0  0  0  0  0  0  0  0  0
    3.2630   -0.7965   -2.5604 O   0  0  0  0  0  0  0  0  0  0  0  0
    4.1756   -1.4833   -3.3867 C   0  0  0  0  0  0  0  0  0  0  0  0
    1.3979   -0.7008   -1.0977 C   0  0  0  0  0  0  0  0  0  0  0  0
    1.3205    0.6171   -0.8644 N   0  0  0  0  0  0  0  0  0  0  0  0
    2.2383    1.5982   -1.4066 C   0  0  0  0  0  0  0  0  0  0  0  0
   -2.5277   -2.8245    3.1375 H   0  0  0  0  0  0  0  0  0  0  0  0
   -1.8409   -1.2280    3.5624 H   0  0  0  0  0  0  0  0  0  0  0  0
   -0.7881   -2.4453    2.8702 H   0  0  0  0  0  0  0  0  0  0  0  0
   -3.5744   -0.0665    2.6726 H   0  0  0  0  0  0  0  0  0  0  0  0
   -4.4197    1.9912    3.5158 H   0  0  0  0  0  0  0  0  0  0  0  0
   -3.3453    4.1397    2.9553 H   0  0  0  0  0  0  0  0  0  0  0  0
   -1.3248    4.1218    1.4915 H   0  0  0  0  0  0  0  0  0  0  0  0
   -0.3718    5.0148   -0.6705 H   0  0  0  0  0  0  0  0  0  0  0  0
    0.9102    4.1857   -1.5780 H   0  0  0  0  0  0  0  0  0  0  0  0
   -0.7146    3.4531   -1.6067 H   0  0  0  0  0  0  0  0  0  0  0  0
   -0.9244   -3.8425    1.0468 H   0  0  0  0  0  0  0  0  0  0  0  0
   -1.9790   -3.0659   -0.2011 H   0  0  0  0  0  0  0  0  0  0  0  0
   -1.0069   -4.4300   -0.5725 H   0  0  0  0  0  0  0  0  0  0  0  0
    0.9583   -4.4788   -1.3988 H   0  0  0  0  0  0  0  0  0  0  0  0
    2.7525   -3.3643   -2.5967 H   0  0  0  0  0  0  0  0  0  0  0  0
    4.7661   -2.1519   -2.6922 H   0  0  0  0  0  0  0  0  0  0  0  0
    4.9047   -0.7374   -3.7512 H   0  0  0  0  0  0  0  0  0  0  0  0
    3.7221   -2.0614   -4.1907 H   0  0  0  0  0  0  0  0  0  0  0  0
    2.3392    2.4054   -0.6305 H   0  0  0  0  0  0  0  0  0  0  0  0
    3.2292    1.1939   -1.6632 H   0  0  0  0  0  0  0  0  0  0  0  0
    1.8384    2.0988   -2.3106 H   0  0  0  0  0  0  0  0  0  0  0  0
  1  2  1  0
  2  3  1  0
  3  4  2  0
  4  5  1  0
  5  6  2  0
  6  7  1  0
  7  8  2  0
  8  9  1  0
  9 10  2  0
 10 11  1  0
 11 12  1  0
 10 13  1  0
 13 14  2  0
 14 15  1  0
 15 16  2  0
 16 17  1  0
 16 18  1  0
 18 19  2  0
 19 20  1  0
 20 21  1  0
 21 22  1  0
 20 23  2  0
 23 24  1  0
 24 25  1  0
 14  3  1  0
 23 15  1  0
  9  4  1  0
 24 13  1  0
  1 26  1  0
  1 27  1  0
  1 28  1  0
  5 29  1  0
  6 30  1  0
  7 31  1  0
  8 32  1  0
 12 33  1  0
 12 34  1  0
 12 35  1  0
 17 36  1  0
 17 37  1  0
 17 38  1  0
 18 39  1  0
 19 40  1  0
 22 41  1  0
 22 42  1  0
 22 43  1  0
 25 44  1  0
 25 45  1  0
 25 46  1  0
M  END
