
     RDKit          3D

 50 53  0  0  0  0  0  0  0  0999 V2000
    4.6214    1.3065   -0.7798 C   0  0  0  0  0  0  0  0  0  0  0  0
    4.3533    0.0048   -0.0668 C   0  0  0  0  0  0  0  0  0  0  0  0
    4.6928    0.0909    1.4087 C   0  0  0  0  0  0  0  0  0  0  0  0
    5.3200   -1.0079   -0.6520 C   0  0  0  0  0  0  0  0  0  0  0  0
    2.9794   -0.5147   -0.2679 C   0  0  0  0  0  0  0  0  0  0  0  0
    2.7879   -1.7423   -0.8923 C   0  0  0  0  0  0  0  0  0  0  0  0
    1.5415   -2.2540   -1.1210 C   0  0  0  0  0  0  0  0  0  0  0  0
    0.4006   -1.5764   -0.7424 C   0  0  0  0  0  0  0  0  0  0  0  0
   -0.8547   -2.0903   -0.9723 C   0  0  0  0  0  0  0  0  0  0  0  0
   -1.9806   -1.3964   -0.5848 C   0  0  0  0  0  0  0  0  0  0  0  0
   -1.8302   -0.1775    0.0384 C   0  0  0  0  0  0  0  0  0  0  0  0
   -2.9820    0.5071    0.4219 C   0  0  0  0  0  0  0  0  0  0  0  0
   -4.3533   -0.0026    0.2238 C   0  0  0  0  0  0  0  0  0  0  0  0
   -4.6199   -1.3148    0.9439 C   0  0  0  0  0  0  0  0  0  0  0  0
   -4.7107   -0.1169   -1.2476 C   0  0  0  0  0  0  0  0  0  0  0  0
   -5.3197    1.0073    0.8072 C   0  0  0  0  0  0  0  0  0  0  0  0
   -2.7699    1.7379    1.0471 C   0  0  0  0  0  0  0  0  0  0  0  0
   -1.5359    2.2496    1.2756 C   0  0  0  0  0  0  0  0  0  0  0  0
   -0.4045    1.5734    0.8977 C   0  0  0  0  0  0  0  0  0  0  0  0
    0.8560    2.0753    1.1219 C   0  0  0  0  0  0  0  0  0  0  0  0
    1.9808    1.3861    0.7373 C   0  0  0  0  0  0  0  0  0  0  0  0
    1.8335    0.1684    0.1144 C   0  0  0  0  0  0  0  0  0  0  0  0
    0.5678   -0.3388   -0.1115 C   0  0  0  0  0  0  0  0  0  0  0  0
   -0.5622    0.3408    0.2695 C   0  0  0  0  0  0  0  0  0  0  0  0
    3.7220    1.6952   -1.3301 H   0  0  0  0  0  0  0  0  0  0  0  0
    5.0872    2.0746   -0.1284 H   0  0  0  0  0  0  0  0  0  0  0  0
    5.3777    1.1883   -1.6162 H   0  0  0  0  0  0  0  0  0  0  0  0
    5.1264    1.0701    1.6950 H   0  0  0  0  0  0  0  0  0  0  0  0
    3.7903   -0.1756    2.0303 H   0  0  0  0  0  0  0  0  0  0  0  0
    5.4573   -0.6643    1.7225 H   0  0  0  0  0  0  0  0  0  0  0  0
    5.1968   -1.1008   -1.7426 H   0  0  0  0  0  0  0  0  0  0  0  0
    6.3396   -0.5397   -0.5026 H   0  0  0  0  0  0  0  0  0  0  0  0
    5.3242   -1.9675   -0.1008 H   0  0  0  0  0  0  0  0  0  0  0  0
    3.6572   -2.3081   -1.2058 H   0  0  0  0  0  0  0  0  0  0  0  0
    1.3903   -3.2142   -1.6095 H   0  0  0  0  0  0  0  0  0  0  0  0
   -0.9523   -3.0507   -1.4633 H   0  0  0  0  0  0  0  0  0  0  0  0
   -2.9780   -1.7891   -0.7684 H   0  0  0  0  0  0  0  0  0  0  0  0
   -5.0867   -2.0802    0.2901 H   0  0  0  0  0  0  0  0  0  0  0  0
   -3.7174   -1.6942    1.4878 H   0  0  0  0  0  0  0  0  0  0  0  0
   -5.3785   -1.1858    1.7755 H   0  0  0  0  0  0  0  0  0  0  0  0
   -3.8386    0.1282   -1.9106 H   0  0  0  0  0  0  0  0  0  0  0  0
   -5.4927    0.6277   -1.5581 H   0  0  0  0  0  0  0  0  0  0  0  0
   -5.1505   -1.1035   -1.5018 H   0  0  0  0  0  0  0  0  0  0  0  0
   -5.1738    1.1709    1.8935 H   0  0  0  0  0  0  0  0  0  0  0  0
   -5.2863    1.9919    0.3080 H   0  0  0  0  0  0  0  0  0  0  0  0
   -6.3720    0.6405    0.6144 H   0  0  0  0  0  0  0  0  0  0  0  0
   -3.6119    2.3385    1.3777 H   0  0  0  0  0  0  0  0  0  0  0  0
   -1.3946    3.2140    1.7663 H   0  0  0  0  0  0  0  0  0  0  0  0
    0.9773    3.0350    1.6119 H   0  0  0  0  0  0  0  0  0  0  0  0
    2.9753    1.7834    0.9246 H   0  0  0  0  0  0  0  0  0  0  0  0
  1  2  1  0
  2  3  1  0
  2  4  1  0
  2  5  1  0
  5  6  2  0
  6  7  1  0
  7  8  2  0
  8  9  1  0
  9 10  2  0
 10 11  1  0
 11 12  2  0
 12 13  1  0
 13 14  1  0
 13 15  1  0
 13 16  1  0
 12 17  1  0
 17 18  2  0
 18 19  1  0
 19 20  2  0
 20 21  1  0
 21 22  2  0
 22 23  1  0
 23 24  2  0
 22  5  1  0
 23  8  1  0
 24 11  1  0
 24 19  1  0
  1 25  1  0
  1 26  1  0
  1 27  1  0
  3 28  1  0
  3 29  1  0
  3 30  1  0
  4 31  1  0
  4 32  1  0
  4 33  1  0
  6 34  1  0
  7 35  1  0
  9 36  1  0
 10 37  1  0
 14 38  1  0
 14 39  1  0
 14 40  1  0
 15 41  1  0
 15 42  1  0
 15 43  1  0
 16 44  1  0
 16 45  1  0
 16 46  1  0
 17 47  1  0
 18 48  1  0
 20 49  1  0
 21 50  1  0
M  END
