
     RDKit          3D

 46 48  0  0  0  0  0  0  0  0999 V2000
    6.0731    2.4681   -0.1586 O   0  0  0  0  0  0  0  0  0  0  0  0
    6.3770    1.2822   -0.4227 C   0  0  0  0  0  0  0  0  0  0  0  0
    6.9845    1.0515   -1.6709 O   0  0  0  0  0  0  0  0  0  0  0  0
    6.1382    0.1377    0.4844 C   0  0  0  0  0  0  0  0  0  0  0  0
    4.7085   -0.3753    0.4206 C   0  0  0  0  0  0  0  0  0  0  0  0
    3.7851    0.7243    0.8232 C   0  0  0  0  0  0  0  0  0  0  0  0
    2.3214    0.3482    0.8162 C   0  0  0  0  0  0  0  0  0  0  0  0
    1.9143   -0.0522   -0.5551 C   0  0  0  0  0  0  0  0  0  0  0  0
    0.5188   -0.4369   -0.6562 N   0  0  0  0  0  0  0  0  0  0  0  0
   -0.0293   -1.5210    0.0694 C   0  0  0  0  0  0  0  0  0  0  0  0
    0.8357   -2.1355    0.8009 O   0  0  0  0  0  0  0  0  0  0  0  0
   -1.4083   -1.9716    0.0458 C   0  0  0  0  0  0  0  0  0  0  0  0
   -1.6907   -3.3347   -0.0893 C   0  0  0  0  0  0  0  0  0  0  0  0
   -2.9602   -3.8158   -0.2175 C   0  0  0  0  0  0  0  0  0  0  0  0
   -4.0095   -2.9406   -0.2152 C   0  0  0  0  0  0  0  0  0  0  0  0
   -3.7549   -1.5960   -0.0812 C   0  0  0  0  0  0  0  0  0  0  0  0
   -4.8448   -0.7324   -0.0533 C   0  0  0  0  0  0  0  0  0  0  0  0
   -6.0308   -1.1636   -0.1749 O   0  0  0  0  0  0  0  0  0  0  0  0
   -4.6292    0.6161    0.1101 C   0  0  0  0  0  0  0  0  0  0  0  0
   -5.7254    1.4564    0.1340 C   0  0  0  0  0  0  0  0  0  0  0  0
   -5.5376    2.8316    0.2989 C   0  0  0  0  0  0  0  0  0  0  0  0
   -4.2363    3.2624    0.4293 C   0  0  0  0  0  0  0  0  0  0  0  0
   -3.1387    2.4437    0.4077 C   0  0  0  0  0  0  0  0  0  0  0  0
   -3.3437    1.0915    0.2442 C   0  0  0  0  0  0  0  0  0  0  0  0
   -2.3147    0.2133    0.2100 N   0  0  0  0  0  0  0  0  0  0  0  0
   -2.4755   -1.1101    0.0493 C   0  0  0  0  0  0  0  0  0  0  0  0
    7.1969    1.7976   -2.2968 H   0  0  0  0  0  0  0  0  0  0  0  0
    6.8721   -0.6582    0.2235 H   0  0  0  0  0  0  0  0  0  0  0  0
    6.3474    0.4865    1.5362 H   0  0  0  0  0  0  0  0  0  0  0  0
    4.5403   -0.7452   -0.6249 H   0  0  0  0  0  0  0  0  0  0  0  0
    4.6283   -1.2753    1.0689 H   0  0  0  0  0  0  0  0  0  0  0  0
    4.1055    1.1209    1.8044 H   0  0  0  0  0  0  0  0  0  0  0  0
    3.9468    1.5657    0.1002 H   0  0  0  0  0  0  0  0  0  0  0  0
    2.2126   -0.4501    1.5817 H   0  0  0  0  0  0  0  0  0  0  0  0
    1.7852    1.2767    1.1680 H   0  0  0  0  0  0  0  0  0  0  0  0
    2.0736    0.8165   -1.2205 H   0  0  0  0  0  0  0  0  0  0  0  0
    2.5589   -0.9060   -0.8668 H   0  0  0  0  0  0  0  0  0  0  0  0
   -0.0775    0.0884   -1.3146 H   0  0  0  0  0  0  0  0  0  0  0  0
   -0.8298   -3.9992   -0.0867 H   0  0  0  0  0  0  0  0  0  0  0  0
   -3.1501   -4.8859   -0.3231 H   0  0  0  0  0  0  0  0  0  0  0  0
   -5.0517   -3.2660   -0.3160 H   0  0  0  0  0  0  0  0  0  0  0  0
   -6.7325    1.1101    0.0325 H   0  0  0  0  0  0  0  0  0  0  0  0
   -6.4007    3.4852    0.3170 H   0  0  0  0  0  0  0  0  0  0  0  0
   -4.0623    4.3211    0.5583 H   0  0  0  0  0  0  0  0  0  0  0  0
   -2.1236    2.7888    0.5108 H   0  0  0  0  0  0  0  0  0  0  0  0
   -1.3665    0.5870    0.3505 H   0  0  0  0  0  0  0  0  0  0  0  0
  1  2  2  0
  2  3  1  0
  2  4  1  0
  4  5  1  0
  5  6  1  0
  6  7  1  0
  7  8  1  0
  8  9  1  0
  9 10  1  0
 10 11  2  0
 10 12  1  0
 12 13  2  0
 13 14  1  0
 14 15  2  0
 15 16  1  0
 16 17  1  0
 17 18  2  0
 17 19  1  0
 19 20  2  0
 20 21  1  0
 21 22  2  0
 22 23  1  0
 23 24  2  0
 24 25  1  0
 25 26  1  0
 26 12  1  0
 26 16  2  0
 24 19  1  0
  3 27  1  0
  4 28  1  0
  4 29  1  0
  5 30  1  0
  5 31  1  0
  6 32  1  0
  6 33  1  0
  7 34  1  0
  7 35  1  0
  8 36  1  0
  8 37  1  0
  9 38  1  0
 13 39  1  0
 14 40  1  0
 15 41  1  0
 20 42  1  0
 21 43  1  0
 22 44  1  0
 23 45  1  0
 25 46  1  0
M  END
