
     RDKit          3D

 51 54  0  0  0  0  0  0  0  0999 V2000
    9.1467   -0.8796    0.5023 O   0  0  0  0  0  0  0  0  0  0  0  0
    8.4596    0.0804    0.8811 N   0  0  0  0  0  4  0  0  0  0  0  0
    8.9922    1.0528    1.6581 O   0  0  0  0  0  1  0  0  0  0  0  0
    7.1015    0.1394    0.5106 C   0  0  0  0  0  0  0  0  0  0  0  0
    6.2645    1.1160    1.0310 C   0  0  0  0  0  0  0  0  0  0  0  0
    4.9021    1.1217    0.6777 C   0  0  0  0  0  0  0  0  0  0  0  0
    4.3661    0.1898   -0.1670 C   0  0  0  0  0  0  0  0  0  0  0  0
    3.0510    0.1690   -0.5715 N   0  0  0  0  0  0  0  0  0  0  0  0
    1.8425    0.8943   -0.2633 C   0  0  0  0  0  0  0  0  0  0  0  0
    0.7572   -0.1808   -0.3764 C   0  0  0  0  0  0  0  0  0  0  0  0
   -0.5473    0.0462   -0.4611 N   0  0  0  0  0  0  0  0  0  0  0  0
   -1.4863    0.7065    0.3282 C   0  0  0  0  0  0  0  0  0  0  0  0
   -2.8918    0.3653    0.0030 C   0  0  0  0  0  0  0  0  0  0  0  0
   -3.9223    1.2878    0.0487 C   0  0  0  0  0  0  0  0  0  0  0  0
   -3.6406    2.6398    0.0597 C   0  0  0  0  0  0  0  0  0  0  0  0
   -4.6560    3.5657    0.0278 C   0  0  0  0  0  0  0  0  0  0  0  0
   -5.9788    3.2049   -0.0162 C   0  0  0  0  0  0  0  0  0  0  0  0
   -6.2534    1.8494   -0.0236 C   0  0  0  0  0  0  0  0  0  0  0  0
   -5.2606    0.9145    0.0071 C   0  0  0  0  0  0  0  0  0  0  0  0
   -5.6050   -0.3920   -0.0755 C   0  0  0  0  0  0  0  0  0  0  0  0
   -4.6251   -1.3423   -0.1143 C   0  0  0  0  0  0  0  0  0  0  0  0
   -5.0091   -2.6511   -0.1140 C   0  0  0  0  0  0  0  0  0  0  0  0
   -4.0886   -3.6795   -0.0758 C   0  0  0  0  0  0  0  0  0  0  0  0
   -2.7788   -3.3299   -0.0400 C   0  0  0  0  0  0  0  0  0  0  0  0
   -2.3838   -1.9859   -0.0427 C   0  0  0  0  0  0  0  0  0  0  0  0
   -3.2820   -0.9824   -0.0782 C   0  0  0  0  0  0  0  0  0  0  0  0
    5.2066   -0.8135   -0.7012 C   0  0  0  0  0  0  0  0  0  0  0  0
    4.7237   -1.8123   -1.5848 N   0  0  0  0  0  4  0  0  0  0  0  0
    3.6176   -2.3778   -1.5171 O   0  0  0  0  0  0  0  0  0  0  0  0
    5.5441   -2.2795   -2.6122 O   0  0  0  0  0  1  0  0  0  0  0  0
    6.5450   -0.7887   -0.3345 C   0  0  0  0  0  0  0  0  0  0  0  0
    6.6772    1.8523    1.7012 H   0  0  0  0  0  0  0  0  0  0  0  0
    4.2776    1.9160    1.1162 H   0  0  0  0  0  0  0  0  0  0  0  0
    2.8363   -0.5291   -1.3986 H   0  0  0  0  0  0  0  0  0  0  0  0
    1.6610    1.7082   -0.9316 H   0  0  0  0  0  0  0  0  0  0  0  0
    1.8788    1.2362    0.8134 H   0  0  0  0  0  0  0  0  0  0  0  0
    1.0791   -0.7235   -1.3900 H   0  0  0  0  0  0  0  0  0  0  0  0
    1.1024   -1.0046    0.3468 H   0  0  0  0  0  0  0  0  0  0  0  0
   -0.7483    0.3516   -1.5304 H   0  0  0  0  0  0  0  0  0  0  0  0
   -1.2661    1.7595    0.4970 H   0  0  0  0  0  0  0  0  0  0  0  0
   -1.3165    0.2785    1.4288 H   0  0  0  0  0  0  0  0  0  0  0  0
   -2.6042    2.9411    0.0715 H   0  0  0  0  0  0  0  0  0  0  0  0
   -4.3615    4.6095    0.0226 H   0  0  0  0  0  0  0  0  0  0  0  0
   -6.7643    3.9377   -0.0476 H   0  0  0  0  0  0  0  0  0  0  0  0
   -7.3055    1.5956   -0.0565 H   0  0  0  0  0  0  0  0  0  0  0  0
   -6.6528   -0.6709   -0.1057 H   0  0  0  0  0  0  0  0  0  0  0  0
   -6.0572   -2.9341   -0.1417 H   0  0  0  0  0  0  0  0  0  0  0  0
   -4.3938   -4.7239   -0.0704 H   0  0  0  0  0  0  0  0  0  0  0  0
   -1.9858   -4.0594    0.0056 H   0  0  0  0  0  0  0  0  0  0  0  0
   -1.3536   -1.8369    0.0208 H   0  0  0  0  0  0  0  0  0  0  0  0
    7.1866   -1.5523   -0.7499 H   0  0  0  0  0  0  0  0  0  0  0  0
  1  2  2  0
  2  3  1  0
  2  4  1  0
  4  5  2  0
  5  6  1  0
  6  7  2  0
  7  8  1  0
  8  9  1  0
  9 10  1  0
 10 11  1  0
 11 12  1  0
 12 13  1  0
 13 14  1  0
 14 15  2  0
 15 16  1  0
 16 17  2  0
 17 18  1  0
 18 19  2  0
 19 20  1  0
 20 21  2  0
 21 22  1  0
 22 23  2  0
 23 24  1  0
 24 25  2  0
 25 26  1  0
  7 27  1  0
 27 28  1  0
 28 29  2  0
 28 30  1  0
 27 31  2  0
 31  4  1  0
 26 13  2  0
 19 14  1  0
 26 21  1  0
  5 32  1  0
  6 33  1  0
  8 34  1  0
  9 35  1  0
  9 36  1  0
 10 37  1  0
 10 38  1  0
 11 39  1  0
 12 40  1  0
 12 41  1  0
 15 42  1  0
 16 43  1  0
 17 44  1  0
 18 45  1  0
 20 46  1  0
 22 47  1  0
 23 48  1  0
 24 49  1  0
 25 50  1  0
 31 51  1  0
M  CHG  4   2   1   3  -1  28   1  30  -1
M  END
