
     RDKit          3D

 36 38  0  0  0  0  0  0  0  0999 V2000
    4.3195    1.5096    0.8854 C   0  0  0  0  0  0  0  0  0  0  0  0
    3.5460    0.6102   -0.0252 C   0  0  0  0  0  0  0  0  0  0  0  0
    4.1333   -0.0343   -1.0837 C   0  0  0  0  0  0  0  0  0  0  0  0
    3.3935   -0.8483   -1.8942 C   0  0  0  0  0  0  0  0  0  0  0  0
    2.0141   -1.0791   -1.7090 C   0  0  0  0  0  0  0  0  0  0  0  0
    1.3699   -1.9066   -2.5755 O   0  0  0  0  0  0  0  0  0  0  0  0
    1.4267   -0.4254   -0.6381 C   0  0  0  0  0  0  0  0  0  0  0  0
   -0.0313   -0.6068   -0.4259 C   0  0  0  0  0  0  0  0  0  0  0  0
   -0.7058   -1.6333   -0.9989 N   0  0  0  0  0  0  0  0  0  0  0  0
   -1.9853   -1.5901   -0.7092 C   0  0  0  0  0  0  0  0  0  0  0  0
   -3.0706   -2.5230   -1.1335 C   0  0  0  0  0  0  0  0  0  0  0  0
   -2.1270   -0.4626    0.0989 C   0  0  0  0  0  0  0  0  0  0  0  0
   -0.9286    0.1046    0.2475 N   0  0  0  0  0  0  0  0  0  0  0  0
   -0.7368    1.3268    1.0290 C   0  0  0  0  0  0  0  0  0  0  0  0
   -2.0660    1.9991    1.3607 C   0  0  0  0  0  0  0  0  0  0  0  0
   -3.0498    0.9594    1.8529 C   0  0  0  0  0  0  0  0  0  0  0  0
   -3.3599    0.0559    0.6970 C   0  0  0  0  0  0  0  0  0  0  0  0
    2.1855    0.3944    0.1744 C   0  0  0  0  0  0  0  0  0  0  0  0
    4.8003    2.3419    0.3335 H   0  0  0  0  0  0  0  0  0  0  0  0
    5.0934    0.9043    1.4177 H   0  0  0  0  0  0  0  0  0  0  0  0
    3.6265    1.9371    1.6248 H   0  0  0  0  0  0  0  0  0  0  0  0
    5.2013    0.1202   -1.2595 H   0  0  0  0  0  0  0  0  0  0  0  0
    3.8431   -1.3655   -2.7353 H   0  0  0  0  0  0  0  0  0  0  0  0
    0.4758   -2.2320   -2.7019 H   0  0  0  0  0  0  0  0  0  0  0  0
   -2.7464   -3.5443   -0.7798 H   0  0  0  0  0  0  0  0  0  0  0  0
   -3.1408   -2.5669   -2.2516 H   0  0  0  0  0  0  0  0  0  0  0  0
   -4.0329   -2.2761   -0.6779 H   0  0  0  0  0  0  0  0  0  0  0  0
   -0.2335    1.0493    1.9742 H   0  0  0  0  0  0  0  0  0  0  0  0
   -0.1002    2.0015    0.4438 H   0  0  0  0  0  0  0  0  0  0  0  0
   -2.4727    2.4684    0.4480 H   0  0  0  0  0  0  0  0  0  0  0  0
   -1.8821    2.7096    2.1862 H   0  0  0  0  0  0  0  0  0  0  0  0
   -3.9654    1.4856    2.1709 H   0  0  0  0  0  0  0  0  0  0  0  0
   -2.6265    0.3713    2.6758 H   0  0  0  0  0  0  0  0  0  0  0  0
   -3.9086    0.5926   -0.1085 H   0  0  0  0  0  0  0  0  0  0  0  0
   -4.0341   -0.7527    1.0547 H   0  0  0  0  0  0  0  0  0  0  0  0
    1.7751    0.9053    1.0322 H   0  0  0  0  0  0  0  0  0  0  0  0
  1  2  1  0
  2  3  2  0
  3  4  1  0
  4  5  2  0
  5  6  1  0
  5  7  1  0
  7  8  1  0
  8  9  2  0
  9 10  1  0
 10 11  1  0
 10 12  2  0
 12 13  1  0
 13 14  1  0
 14 15  1  0
 15 16  1  0
 16 17  1  0
  7 18  2  0
 18  2  1  0
 13  8  1  0
 17 12  1  0
  1 19  1  0
  1 20  1  0
  1 21  1  0
  3 22  1  0
  4 23  1  0
  6 24  1  0
 11 25  1  0
 11 26  1  0
 11 27  1  0
 14 28  1  0
 14 29  1  0
 15 30  1  0
 15 31  1  0
 16 32  1  0
 16 33  1  0
 17 34  1  0
 17 35  1  0
 18 36  1  0
M  END
