
     RDKit          3D

 50 53  0  0  0  0  0  0  0  0999 V2000
   -7.3808   -0.3094   -1.9122 C   0  0  0  0  0  0  0  0  0  0  0  0
   -6.3068   -0.3227   -0.9531 N   0  0  0  0  0  0  0  0  0  0  0  0
   -5.2604   -1.1646   -1.0430 C   0  0  0  0  0  0  0  0  0  0  0  0
   -5.1961   -1.9860   -1.9998 O   0  0  0  0  0  0  0  0  0  0  0  0
   -4.2392   -1.1641   -0.1148 C   0  0  0  0  0  0  0  0  0  0  0  0
   -3.1406   -2.0704   -0.2369 N   0  0  0  0  0  0  0  0  0  0  0  0
   -2.0170   -1.9078   -0.2831 N   0  0  0  0  0  0  0  0  0  0  0  0
   -0.6963   -1.7098   -0.3368 C   0  0  0  0  0  0  0  0  0  0  0  0
    0.0885   -2.1382    0.7504 C   0  0  0  0  0  0  0  0  0  0  0  0
    1.4577   -1.9710    0.7731 C   0  0  0  0  0  0  0  0  0  0  0  0
    2.0879   -1.3684   -0.2936 C   0  0  0  0  0  0  0  0  0  0  0  0
    3.4931   -1.2112   -0.2411 N   0  0  0  0  0  0  0  0  0  0  0  0
    4.0576   -0.1374    0.1076 N   0  0  0  0  0  0  0  0  0  0  0  0
    5.4493    0.0614    0.1736 C   0  0  0  0  0  0  0  0  0  0  0  0
    5.8928    1.3768    0.2897 C   0  0  0  0  0  0  0  0  0  0  0  0
    7.2149    1.7039    0.3629 C   0  0  0  0  0  0  0  0  0  0  0  0
    8.1573    0.6907    0.3204 C   0  0  0  0  0  0  0  0  0  0  0  0
    9.8641    1.0649    0.4111 S   0  0  0  0  0  6  0  0  0  0  0  0
   10.5817   -0.0791    1.1077 O   0  0  0  0  0  0  0  0  0  0  0  0
   10.0874    2.2852    1.2506 O   0  0  0  0  0  0  0  0  0  0  0  0
   10.4349    1.2962   -1.1364 O   0  0  0  0  0  0  0  0  0  0  0  0
    7.7275   -0.6142    0.2055 C   0  0  0  0  0  0  0  0  0  0  0  0
    6.3853   -0.9240    0.1329 C   0  0  0  0  0  0  0  0  0  0  0  0
    1.3618   -0.9296   -1.3866 C   0  0  0  0  0  0  0  0  0  0  0  0
    0.0077   -1.1036   -1.3912 C   0  0  0  0  0  0  0  0  0  0  0  0
   -4.3406   -0.2550    0.9166 C   0  0  0  0  0  0  0  0  0  0  0  0
   -3.3612   -0.2059    1.8670 O   0  0  0  0  0  0  0  0  0  0  0  0
   -5.4077    0.6274    1.0378 C   0  0  0  0  0  0  0  0  0  0  0  0
   -5.4971    1.5335    2.0766 C   0  0  0  0  0  0  0  0  0  0  0  0
   -6.5617    2.4042    2.1857 C   0  0  0  0  0  0  0  0  0  0  0  0
   -7.5447    2.3449    1.2195 C   0  0  0  0  0  0  0  0  0  0  0  0
   -7.4527    1.4421    0.1870 C   0  0  0  0  0  0  0  0  0  0  0  0
   -6.3862    0.5635    0.0700 C   0  0  0  0  0  0  0  0  0  0  0  0
   -7.3462    0.6857   -2.4209 H   0  0  0  0  0  0  0  0  0  0  0  0
   -7.2899   -1.0783   -2.6843 H   0  0  0  0  0  0  0  0  0  0  0  0
   -8.3695   -0.4392   -1.4035 H   0  0  0  0  0  0  0  0  0  0  0  0
   -0.3636   -2.6161    1.6092 H   0  0  0  0  0  0  0  0  0  0  0  0
    2.0718   -2.2998    1.6107 H   0  0  0  0  0  0  0  0  0  0  0  0
    5.1738    2.1869    0.3249 H   0  0  0  0  0  0  0  0  0  0  0  0
    7.5642    2.7205    0.4529 H   0  0  0  0  0  0  0  0  0  0  0  0
    9.7225    1.2885   -1.8282 H   0  0  0  0  0  0  0  0  0  0  0  0
    8.4972   -1.3829    0.1753 H   0  0  0  0  0  0  0  0  0  0  0  0
    6.0591   -1.9554    0.0426 H   0  0  0  0  0  0  0  0  0  0  0  0
    1.8884   -0.4599   -2.2086 H   0  0  0  0  0  0  0  0  0  0  0  0
   -0.5958   -0.7759   -2.2238 H   0  0  0  0  0  0  0  0  0  0  0  0
   -2.5766   -0.8360    1.8009 H   0  0  0  0  0  0  0  0  0  0  0  0
   -4.7068    1.5490    2.8137 H   0  0  0  0  0  0  0  0  0  0  0  0
   -6.6616    3.1215    2.9816 H   0  0  0  0  0  0  0  0  0  0  0  0
   -8.3826    3.0397    1.3171 H   0  0  0  0  0  0  0  0  0  0  0  0
   -8.2444    1.4292   -0.5480 H   0  0  0  0  0  0  0  0  0  0  0  0
  1  2  1  0
  2  3  1  0
  3  4  2  0
  3  5  1  0
  5  6  1  0
  6  7  2  0
  7  8  1  0
  8  9  2  0
  9 10  1  0
 10 11  2  0
 11 12  1  0
 12 13  2  0
 13 14  1  0
 14 15  2  0
 15 16  1  0
 16 17  2  0
 17 18  1  0
 18 19  2  0
 18 20  2  0
 18 21  1  0
 17 22  1  0
 22 23  2  0
 11 24  1  0
 24 25  2  0
  5 26  2  0
 26 27  1  0
 26 28  1  0
 28 29  2  0
 29 30  1  0
 30 31  2  0
 31 32  1  0
 32 33  2  0
 33  2  1  0
 25  8  1  0
 33 28  1  0
 23 14  1  0
  1 34  1  0
  1 35  1  0
  1 36  1  0
  9 37  1  0
 10 38  1  0
 15 39  1  0
 16 40  1  0
 21 41  1  0
 22 42  1  0
 23 43  1  0
 24 44  1  0
 25 45  1  0
 27 46  1  0
 29 47  1  0
 30 48  1  0
 31 49  1  0
 32 50  1  0
M  END
