
     RDKit          3D

 32 33  0  0  0  0  0  0  0  0999 V2000
   -4.9778   -0.7699    0.8256 C   0  0  0  0  0  0  0  0  0  0  0  0
   -4.1190    0.2358    0.1933 N   0  0  0  0  0  0  0  0  0  0  0  0
   -4.6927    1.3738   -0.4561 C   0  0  0  0  0  0  0  0  0  0  0  0
   -2.7191    0.0166    0.2633 C   0  0  0  0  0  0  0  0  0  0  0  0
   -2.1453   -1.0597    0.8760 C   0  0  0  0  0  0  0  0  0  0  0  0
   -0.7690   -1.2408    0.9244 C   0  0  0  0  0  0  0  0  0  0  0  0
    0.0701   -0.3052    0.3345 C   0  0  0  0  0  0  0  0  0  0  0  0
    1.4985   -0.5313    0.4072 C   0  0  0  0  0  0  0  0  0  0  0  0
    2.3700    0.2910   -0.1170 C   0  0  0  0  0  0  0  0  0  0  0  0
    3.8118    0.1014   -0.0664 C   0  0  0  0  0  0  0  0  0  0  0  0
    4.3960   -0.9787    0.5482 C   0  0  0  0  0  0  0  0  0  0  0  0
    5.7559   -1.1465    0.5893 N   0  0  0  0  0  0  0  0  0  0  0  0
    6.5605   -0.2420    0.0193 C   0  0  0  0  0  0  0  0  0  0  0  0
    5.9863    0.8444   -0.5995 C   0  0  0  0  0  0  0  0  0  0  0  0
    4.6479    1.0167   -0.6442 N   0  0  0  0  0  0  0  0  0  0  0  0
   -0.4827    0.7805   -0.2848 C   0  0  0  0  0  0  0  0  0  0  0  0
   -1.8752    0.9354   -0.3169 C   0  0  0  0  0  0  0  0  0  0  0  0
   -4.6864   -1.7387    0.3851 H   0  0  0  0  0  0  0  0  0  0  0  0
   -4.6324   -0.8154    1.8966 H   0  0  0  0  0  0  0  0  0  0  0  0
   -6.0356   -0.5200    0.7354 H   0  0  0  0  0  0  0  0  0  0  0  0
   -4.2128    1.6587   -1.4016 H   0  0  0  0  0  0  0  0  0  0  0  0
   -4.7030    2.2773    0.2125 H   0  0  0  0  0  0  0  0  0  0  0  0
   -5.7619    1.1270   -0.7246 H   0  0  0  0  0  0  0  0  0  0  0  0
   -2.7639   -1.8086    1.3460 H   0  0  0  0  0  0  0  0  0  0  0  0
   -0.3458   -2.1050    1.4181 H   0  0  0  0  0  0  0  0  0  0  0  0
    1.8753   -1.4188    0.9166 H   0  0  0  0  0  0  0  0  0  0  0  0
    2.0289    1.1854   -0.6320 H   0  0  0  0  0  0  0  0  0  0  0  0
    3.8020   -1.7429    1.0262 H   0  0  0  0  0  0  0  0  0  0  0  0
    7.6263   -0.3389    0.0310 H   0  0  0  0  0  0  0  0  0  0  0  0
    6.6495    1.5668   -1.0557 H   0  0  0  0  0  0  0  0  0  0  0  0
    0.1075    1.5441   -0.7622 H   0  0  0  0  0  0  0  0  0  0  0  0
   -2.2640    1.8075   -0.8168 H   0  0  0  0  0  0  0  0  0  0  0  0
  1  2  1  0
  2  3  1  0
  2  4  1  0
  4  5  2  0
  5  6  1  0
  6  7  2  0
  7  8  1  0
  8  9  2  0
  9 10  1  0
 10 11  2  0
 11 12  1  0
 12 13  2  0
 13 14  1  0
 14 15  2  0
  7 16  1  0
 16 17  2  0
 17  4  1  0
 15 10  1  0
  1 18  1  0
  1 19  1  0
  1 20  1  0
  3 21  1  0
  3 22  1  0
  3 23  1  0
  5 24  1  0
  6 25  1  0
  8 26  1  0
  9 27  1  0
 11 28  1  0
 13 29  1  0
 14 30  1  0
 16 31  1  0
 17 32  1  0
M  END
