
     RDKit          3D

 36 38  0  0  0  0  0  0  0  0999 V2000
    0.0567    1.5396    1.4735 O   0  0  0  0  0  0  0  0  0  0  0  0
   -0.6189    1.1431    0.4780 C   0  0  0  0  0  0  0  0  0  0  0  0
    0.0994    0.5457   -0.5804 N   0  0  0  0  0  0  0  0  0  0  0  0
    1.4984    0.3534   -0.5716 N   0  0  0  0  0  0  0  0  0  0  0  0
    2.0947   -0.3545    0.3072 C   0  0  0  0  0  0  0  0  0  0  0  0
    3.5132   -0.6188    0.4118 C   0  0  0  0  0  0  0  0  0  0  0  0
    3.9862   -1.4316    1.4530 C   0  0  0  0  0  0  0  0  0  0  0  0
    5.3179   -1.7171    1.5948 C   0  0  0  0  0  0  0  0  0  0  0  0
    6.2548   -1.2269    0.7321 C   0  0  0  0  0  0  0  0  0  0  0  0
    5.8199   -0.4315   -0.2916 C   0  0  0  0  0  0  0  0  0  0  0  0
    4.4591   -0.1247   -0.4576 C   0  0  0  0  0  0  0  0  0  0  0  0
    4.1523    0.6754   -1.5128 O   0  0  0  0  0  0  0  0  0  0  0  0
   -2.0566    1.3328    0.4850 C   0  0  0  0  0  0  0  0  0  0  0  0
   -2.5811    2.5882    0.8495 C   0  0  0  0  0  0  0  0  0  0  0  0
   -3.9228    2.8349    0.7610 C   0  0  0  0  0  0  0  0  0  0  0  0
   -4.7489    1.8331    0.3100 C   0  0  0  0  0  0  0  0  0  0  0  0
   -4.2438    0.5881   -0.0509 C   0  0  0  0  0  0  0  0  0  0  0  0
   -5.0808   -0.4221   -0.4758 C   0  0  0  0  0  0  0  0  0  0  0  0
   -4.6461   -1.6819   -0.8180 C   0  0  0  0  0  0  0  0  0  0  0  0
   -3.2941   -1.9439   -0.7280 C   0  0  0  0  0  0  0  0  0  0  0  0
   -2.4436   -0.9396   -0.3037 C   0  0  0  0  0  0  0  0  0  0  0  0
   -2.8792    0.3299    0.0377 C   0  0  0  0  0  0  0  0  0  0  0  0
   -0.3535    0.2250   -1.4882 H   0  0  0  0  0  0  0  0  0  0  0  0
    1.4366   -0.8028    1.0591 H   0  0  0  0  0  0  0  0  0  0  0  0
    3.2552   -1.8352    2.1556 H   0  0  0  0  0  0  0  0  0  0  0  0
    5.6880   -2.3535    2.4070 H   0  0  0  0  0  0  0  0  0  0  0  0
    7.3139   -1.4760    0.8731 H   0  0  0  0  0  0  0  0  0  0  0  0
    6.5193   -0.0240   -0.9922 H   0  0  0  0  0  0  0  0  0  0  0  0
    3.2820    0.9990   -1.7931 H   0  0  0  0  0  0  0  0  0  0  0  0
   -1.9090    3.3571    1.2013 H   0  0  0  0  0  0  0  0  0  0  0  0
   -4.3298    3.8117    1.0455 H   0  0  0  0  0  0  0  0  0  0  0  0
   -5.8170    1.9804    0.2216 H   0  0  0  0  0  0  0  0  0  0  0  0
   -6.1447   -0.1861   -0.5358 H   0  0  0  0  0  0  0  0  0  0  0  0
   -5.3455   -2.4452   -1.1479 H   0  0  0  0  0  0  0  0  0  0  0  0
   -2.9258   -2.9223   -0.9875 H   0  0  0  0  0  0  0  0  0  0  0  0
   -1.4063   -1.1997   -0.2087 H   0  0  0  0  0  0  0  0  0  0  0  0
  1  2  2  0
  2  3  1  0
  3  4  1  0
  4  5  2  0
  5  6  1  0
  6  7  2  0
  7  8  1  0
  8  9  2  0
  9 10  1  0
 10 11  2  0
 11 12  1  0
  2 13  1  0
 13 14  2  0
 14 15  1  0
 15 16  2  0
 16 17  1  0
 17 18  2  0
 18 19  1  0
 19 20  2  0
 20 21  1  0
 21 22  2  0
 11  6  1  0
 22 13  1  0
 22 17  1  0
  3 23  1  0
  5 24  1  0
  7 25  1  0
  8 26  1  0
  9 27  1  0
 10 28  1  0
 12 29  1  0
 14 30  1  0
 15 31  1  0
 16 32  1  0
 18 33  1  0
 19 34  1  0
 20 35  1  0
 21 36  1  0
M  END
