
     RDKit          3D

 68 73  0  0  0  0  0  0  0  0999 V2000
   -4.2921   -1.3437    0.9567 C   0  0  0  0  0  0  0  0  0  0  0  0
   -3.7716   -0.2335    0.1418 C   0  0  0  0  0  0  0  0  0  0  0  0
   -4.4473    0.5589   -0.6485 C   0  0  0  0  0  0  0  0  0  0  0  0
   -5.8586    0.6529   -1.0010 C   0  0  0  0  0  0  0  0  0  0  0  0
   -6.8141   -0.2294   -0.4095 C   0  0  0  0  0  0  0  0  0  0  0  0
   -7.2566    0.0086    0.8740 C   0  0  0  0  0  0  0  0  0  0  0  0
   -8.2211   -0.7820    1.4859 C   0  0  0  0  0  0  0  0  0  0  0  0
   -8.7192   -1.8277    0.7380 C   0  0  0  0  0  0  0  0  0  0  0  0
   -8.2927   -2.0853   -0.5463 C   0  0  0  0  0  0  0  0  0  0  0  0
   -7.3418   -1.2812   -1.1085 C   0  0  0  0  0  0  0  0  0  0  0  0
   -3.4544    1.4880   -1.2431 C   0  0  0  0  0  0  0  0  0  0  0  0
   -3.7340    2.5737   -2.2085 C   0  0  0  0  0  0  0  0  0  0  0  0
   -2.2630    1.2055   -0.7813 N   0  0  0  0  0  4  0  0  0  0  0  0
   -2.3218    0.1226    0.1204 C   0  0  0  0  0  0  0  0  0  0  0  0
   -1.2794   -0.3381    0.7854 C   0  0  0  0  0  0  0  0  0  0  0  0
   -1.4058   -1.4140    1.7903 C   0  0  0  0  0  0  0  0  0  0  0  0
    0.0522    0.2575    0.5267 C   0  0  0  0  0  0  0  0  0  0  0  0
    1.2992   -0.0455    1.0242 C   0  0  0  0  0  0  0  0  0  0  0  0
    1.7046   -1.0636    1.9967 C   0  0  0  0  0  0  0  0  0  0  0  0
    2.2170    0.8163    0.3973 C   0  0  0  0  0  0  0  0  0  0  0  0
    3.6898    0.8371    0.6417 C   0  0  0  0  0  0  0  0  0  0  0  0
    4.2326    1.6330    1.6243 C   0  0  0  0  0  0  0  0  0  0  0  0
    5.8951    1.2745    1.4748 S   0  0  0  0  0  0  0  0  0  0  0  0
    5.8044    0.1513    0.1916 C   0  0  0  0  0  0  0  0  0  0  0  0
    6.8658   -0.5674   -0.4535 N   0  0  0  0  0  0  0  0  0  0  0  0
    7.5869   -0.0435   -1.5899 C   0  0  0  0  0  0  0  0  0  0  0  0
    9.0632   -0.3564   -1.4383 C   0  0  0  0  0  0  0  0  0  0  0  0
    9.2769   -1.6880   -1.0817 O   0  0  0  0  0  0  0  0  0  0  0  0
    8.7305   -1.9044    0.1734 C   0  0  0  0  0  0  0  0  0  0  0  0
    7.2117   -1.8698    0.0708 C   0  0  0  0  0  0  0  0  0  0  0  0
    4.5034    0.1100   -0.0550 N   0  0  0  0  0  0  0  0  0  0  0  0
    1.5274    1.6112   -0.4538 C   0  0  0  0  0  0  0  0  0  0  0  0
    2.1072    2.6673   -1.3202 C   0  0  0  0  0  0  0  0  0  0  0  0
    0.2007    1.2477   -0.3550 N   0  0  0  0  0  0  0  0  0  0  0  0
   -0.9378    1.8675   -1.1067 B   0  0  0  0  0  4  0  0  0  0  0  0
   -1.0044    3.3172   -0.9280 F   0  0  0  0  0  0  0  0  0  0  0  0
   -0.6939    1.5715   -2.5374 F   0  0  0  0  0  0  0  0  0  0  0  0
   -5.1762   -1.8127    0.4238 H   0  0  0  0  0  0  0  0  0  0  0  0
   -3.5779   -2.2353    0.9214 H   0  0  0  0  0  0  0  0  0  0  0  0
   -4.6194   -1.0950    1.9633 H   0  0  0  0  0  0  0  0  0  0  0  0
   -6.2104    1.7516   -0.9443 H   0  0  0  0  0  0  0  0  0  0  0  0
   -5.8863    0.5124   -2.1406 H   0  0  0  0  0  0  0  0  0  0  0  0
   -6.8753    0.8337    1.4879 H   0  0  0  0  0  0  0  0  0  0  0  0
   -8.5563   -0.5729    2.5059 H   0  0  0  0  0  0  0  0  0  0  0  0
   -9.4712   -2.4686    1.1749 H   0  0  0  0  0  0  0  0  0  0  0  0
   -8.7228   -2.9397   -1.1109 H   0  0  0  0  0  0  0  0  0  0  0  0
   -6.9953   -1.4681   -2.1140 H   0  0  0  0  0  0  0  0  0  0  0  0
   -3.0476    3.4406   -2.0816 H   0  0  0  0  0  0  0  0  0  0  0  0
   -3.6753    2.1560   -3.2406 H   0  0  0  0  0  0  0  0  0  0  0  0
   -4.7643    3.0024   -2.0439 H   0  0  0  0  0  0  0  0  0  0  0  0
   -1.3006   -2.4262    1.4188 H   0  0  0  0  0  0  0  0  0  0  0  0
   -2.3309   -1.2544    2.4373 H   0  0  0  0  0  0  0  0  0  0  0  0
   -0.6100   -1.2760    2.5971 H   0  0  0  0  0  0  0  0  0  0  0  0
    2.8388   -1.2090    1.9001 H   0  0  0  0  0  0  0  0  0  0  0  0
    1.5905   -0.7916    3.0548 H   0  0  0  0  0  0  0  0  0  0  0  0
    1.3433   -2.1027    1.7455 H   0  0  0  0  0  0  0  0  0  0  0  0
    3.6888    2.3117    2.3077 H   0  0  0  0  0  0  0  0  0  0  0  0
    7.5093    1.0705   -1.6706 H   0  0  0  0  0  0  0  0  0  0  0  0
    7.2588   -0.4911   -2.5479 H   0  0  0  0  0  0  0  0  0  0  0  0
    9.5141    0.2971   -0.6654 H   0  0  0  0  0  0  0  0  0  0  0  0
    9.5783   -0.1773   -2.3980 H   0  0  0  0  0  0  0  0  0  0  0  0
    9.0380   -2.9206    0.5456 H   0  0  0  0  0  0  0  0  0  0  0  0
    9.0461   -1.1346    0.9026 H   0  0  0  0  0  0  0  0  0  0  0  0
    6.9294   -2.6836   -0.6425 H   0  0  0  0  0  0  0  0  0  0  0  0
    6.7479   -2.0626    1.0531 H   0  0  0  0  0  0  0  0  0  0  0  0
    2.1798    3.6551   -0.7885 H   0  0  0  0  0  0  0  0  0  0  0  0
    3.1472    2.3987   -1.5991 H   0  0  0  0  0  0  0  0  0  0  0  0
    1.5506    2.7933   -2.2679 H   0  0  0  0  0  0  0  0  0  0  0  0
  1  2  1  0
  2  3  2  0
  3  4  1  0
  4  5  1  0
  5  6  2  0
  6  7  1  0
  7  8  2  0
  8  9  1  0
  9 10  2  0
  3 11  1  0
 11 12  1  0
 11 13  2  0
 13 14  1  0
 14 15  2  0
 15 16  1  0
 15 17  1  0
 17 18  2  0
 18 19  1  0
 18 20  1  0
 20 21  1  0
 21 22  2  0
 22 23  1  0
 23 24  1  0
 24 25  1  0
 25 26  1  0
 26 27  1  0
 27 28  1  0
 28 29  1  0
 29 30  1  0
 24 31  2  0
 20 32  2  0
 32 33  1  0
 32 34  1  0
 34 35  1  0
 35 36  1  0
 35 37  1  0
 14  2  1  0
 34 17  1  0
 10  5  1  0
 35 13  1  0
 31 21  1  0
 30 25  1  0
  1 38  1  0
  1 39  1  0
  1 40  1  0
  4 41  1  0
  4 42  1  0
  6 43  1  0
  7 44  1  0
  8 45  1  0
  9 46  1  0
 10 47  1  0
 12 48  1  0
 12 49  1  0
 12 50  1  0
 16 51  1  0
 16 52  1  0
 16 53  1  0
 19 54  1  0
 19 55  1  0
 19 56  1  0
 22 57  1  0
 26 58  1  0
 26 59  1  0
 27 60  1  0
 27 61  1  0
 29 62  1  0
 29 63  1  0
 30 64  1  0
 30 65  1  0
 33 66  1  0
 33 67  1  0
 33 68  1  0
M  CHG  2  13   1  35  -1
M  END
