
     RDKit          3D

 49 51  0  0  0  0  0  0  0  0999 V2000
    5.6071   -2.7648    2.1870 C   0  0  0  0  0  0  0  0  0  0  0  0
    4.7152   -2.1520    1.2729 O   0  0  0  0  0  0  0  0  0  0  0  0
    3.7739   -1.2075    1.6682 C   0  0  0  0  0  0  0  0  0  0  0  0
    3.7914   -0.9494    2.9209 O   0  0  0  0  0  0  0  0  0  0  0  0
    2.8479   -0.5700    0.7450 C   0  0  0  0  0  0  0  0  0  0  0  0
    1.8957    0.3076    1.3948 N   0  0  0  0  0  0  0  0  0  0  0  0
    0.5021    0.1102    1.4328 C   0  0  0  0  0  0  0  0  0  0  0  0
    0.0307   -0.9188    0.8535 O   0  0  0  0  0  0  0  0  0  0  0  0
   -0.3539    1.0966    2.1383 C   0  0  0  0  0  0  0  0  0  0  0  0
   -1.7998    0.7204    2.0875 C   0  0  0  0  0  0  0  0  0  0  0  0
   -2.2326    0.6519    0.6921 N   0  0  0  0  0  0  0  0  0  0  0  0
   -3.5725    0.3108    0.3640 C   0  0  0  0  0  0  0  0  0  0  0  0
   -4.4543    0.0454    1.4163 C   0  0  0  0  0  0  0  0  0  0  0  0
   -5.7520   -0.2876    1.1612 C   0  0  0  0  0  0  0  0  0  0  0  0
   -6.1713   -0.3561   -0.1439 C   0  0  0  0  0  0  0  0  0  0  0  0
   -5.2993   -0.0936   -1.1813 C   0  0  0  0  0  0  0  0  0  0  0  0
   -5.8098   -0.1864   -2.4798 C   0  0  0  0  0  0  0  0  0  0  0  0
   -4.9678    0.0692   -3.5508 C   0  0  0  0  0  0  0  0  0  0  0  0
   -3.6620    0.4041   -3.2919 C   0  0  0  0  0  0  0  0  0  0  0  0
   -3.1495    0.4981   -2.0162 C   0  0  0  0  0  0  0  0  0  0  0  0
   -3.9746    0.2470   -0.9448 C   0  0  0  0  0  0  0  0  0  0  0  0
    3.5143    0.0747   -0.3871 C   0  0  0  0  0  0  0  0  0  0  0  0
    4.8737    0.1054   -0.4951 C   0  0  0  0  0  0  0  0  0  0  0  0
    5.5367    0.7014   -1.5635 C   0  0  0  0  0  0  0  0  0  0  0  0
    4.8152    1.2954   -2.5722 C   0  0  0  0  0  0  0  0  0  0  0  0
    3.4413    1.2761   -2.4824 C   0  0  0  0  0  0  0  0  0  0  0  0
    2.7934    0.6836   -1.4213 C   0  0  0  0  0  0  0  0  0  0  0  0
    5.5730   -3.8615    2.1287 H   0  0  0  0  0  0  0  0  0  0  0  0
    6.6450   -2.4624    1.9073 H   0  0  0  0  0  0  0  0  0  0  0  0
    5.4424   -2.3999    3.2273 H   0  0  0  0  0  0  0  0  0  0  0  0
    2.2157   -1.3984    0.3000 H   0  0  0  0  0  0  0  0  0  0  0  0
    2.2845    1.1650    1.8791 H   0  0  0  0  0  0  0  0  0  0  0  0
    0.0039    1.1876    3.1973 H   0  0  0  0  0  0  0  0  0  0  0  0
   -0.2197    2.1307    1.7178 H   0  0  0  0  0  0  0  0  0  0  0  0
   -2.4069    1.4535    2.6456 H   0  0  0  0  0  0  0  0  0  0  0  0
   -1.8982   -0.2868    2.5843 H   0  0  0  0  0  0  0  0  0  0  0  0
   -1.5162    0.8638   -0.0230 H   0  0  0  0  0  0  0  0  0  0  0  0
   -4.1123    0.1027    2.4407 H   0  0  0  0  0  0  0  0  0  0  0  0
   -6.4412   -0.4947    1.9894 H   0  0  0  0  0  0  0  0  0  0  0  0
   -7.2175   -0.6243   -0.3460 H   0  0  0  0  0  0  0  0  0  0  0  0
   -6.8461   -0.4538   -2.6426 H   0  0  0  0  0  0  0  0  0  0  0  0
   -5.3824   -0.0087   -4.5344 H   0  0  0  0  0  0  0  0  0  0  0  0
   -2.9922    0.6062   -4.1135 H   0  0  0  0  0  0  0  0  0  0  0  0
   -2.1188    0.7638   -1.8586 H   0  0  0  0  0  0  0  0  0  0  0  0
    5.5203   -0.3261    0.2529 H   0  0  0  0  0  0  0  0  0  0  0  0
    6.6160    0.7226   -1.6438 H   0  0  0  0  0  0  0  0  0  0  0  0
    5.3237    1.7739   -3.4290 H   0  0  0  0  0  0  0  0  0  0  0  0
    2.8800    1.7558   -3.2967 H   0  0  0  0  0  0  0  0  0  0  0  0
    1.7079    0.6791   -1.3696 H   0  0  0  0  0  0  0  0  0  0  0  0
  1  2  1  0
  2  3  1  0
  3  4  2  0
  3  5  1  0
  5  6  1  0
  6  7  1  0
  7  8  2  0
  7  9  1  0
  9 10  1  0
 10 11  1  0
 11 12  1  0
 12 13  2  0
 13 14  1  0
 14 15  2  0
 15 16  1  0
 16 17  2  0
 17 18  1  0
 18 19  2  0
 19 20  1  0
 20 21  2  0
  5 22  1  0
 22 23  2  0
 23 24  1  0
 24 25  2  0
 25 26  1  0
 26 27  2  0
 21 12  1  0
 27 22  1  0
 21 16  1  0
  1 28  1  0
  1 29  1  0
  1 30  1  0
  5 31  1  0
  6 32  1  0
  9 33  1  0
  9 34  1  0
 10 35  1  0
 10 36  1  0
 11 37  1  0
 13 38  1  0
 14 39  1  0
 15 40  1  0
 17 41  1  0
 18 42  1  0
 19 43  1  0
 20 44  1  0
 23 45  1  0
 24 46  1  0
 25 47  1  0
 26 48  1  0
 27 49  1  0
M  END
