
     RDKit          3D

 31 34  0  0  0  0  0  0  0  0999 V2000
    5.4761    0.8807    0.1008 C   0  0  0  0  0  0  0  0  0  0  0  0
    4.0123    0.6009    0.1017 C   0  0  0  0  0  0  0  0  0  0  0  0
    3.3816   -0.5977   -0.0225 C   0  0  0  0  0  0  0  0  0  0  0  0
    2.0264   -0.5965    0.0082 C   0  0  0  0  0  0  0  0  0  0  0  0
    1.1537   -1.7006   -0.0997 C   0  0  0  0  0  0  0  0  0  0  0  0
   -0.1958   -1.5584   -0.0528 C   0  0  0  0  0  0  0  0  0  0  0  0
   -1.0704   -2.7745   -0.1738 C   0  0  0  0  0  0  0  0  0  0  0  0
   -0.8143   -0.3527    0.1003 C   0  0  0  0  0  0  0  0  0  0  0  0
   -2.1021    0.1278    0.1849 C   0  0  0  0  0  0  0  0  0  0  0  0
   -3.3117   -0.5006    0.1397 C   0  0  0  0  0  0  0  0  0  0  0  0
   -4.4537    0.2639    0.2539 C   0  0  0  0  0  0  0  0  0  0  0  0
   -4.3793    1.6235    0.4092 C   0  0  0  0  0  0  0  0  0  0  0  0
   -3.1522    2.2437    0.4531 C   0  0  0  0  0  0  0  0  0  0  0  0
   -1.9921    1.5058    0.3416 C   0  0  0  0  0  0  0  0  0  0  0  0
   -0.6983    1.8641    0.3538 N   0  0  0  0  0  0  0  0  0  0  0  0
    0.0103    0.7449    0.2085 C   0  0  0  0  0  0  0  0  0  0  0  0
    1.4111    0.6137    0.1618 C   0  0  0  0  0  0  0  0  0  0  0  0
    2.7284    1.7025    0.2579 S   0  0  0  0  0  0  0  0  0  0  0  0
    5.6917    1.8366   -0.4592 H   0  0  0  0  0  0  0  0  0  0  0  0
    5.8697    1.0496    1.1247 H   0  0  0  0  0  0  0  0  0  0  0  0
    6.0437    0.1005   -0.4408 H   0  0  0  0  0  0  0  0  0  0  0  0
    3.9965   -1.5207   -0.1429 H   0  0  0  0  0  0  0  0  0  0  0  0
    1.5464   -2.7120   -0.2253 H   0  0  0  0  0  0  0  0  0  0  0  0
   -1.6305   -2.9871    0.7362 H   0  0  0  0  0  0  0  0  0  0  0  0
   -1.6723   -2.7498   -1.1118 H   0  0  0  0  0  0  0  0  0  0  0  0
   -0.4069   -3.6742   -0.3194 H   0  0  0  0  0  0  0  0  0  0  0  0
   -3.3780   -1.5518    0.0199 H   0  0  0  0  0  0  0  0  0  0  0  0
   -5.4056   -0.2165    0.2199 H   0  0  0  0  0  0  0  0  0  0  0  0
   -5.2953    2.1860    0.4949 H   0  0  0  0  0  0  0  0  0  0  0  0
   -3.0730    3.3168    0.5752 H   0  0  0  0  0  0  0  0  0  0  0  0
   -0.3164    2.8319    0.4569 H   0  0  0  0  0  0  0  0  0  0  0  0
  1  2  1  0
  2  3  2  0
  3  4  1  0
  4  5  2  0
  5  6  1  0
  6  7  1  0
  6  8  2  0
  8  9  1  0
  9 10  2  0
 10 11  1  0
 11 12  2  0
 12 13  1  0
 13 14  2  0
 14 15  1  0
 15 16  1  0
 16 17  2  0
 17 18  1  0
 18  2  1  0
 17  4  1  0
 16  8  1  0
 14  9  1  0
  1 19  1  0
  1 20  1  0
  1 21  1  0
  3 22  1  0
  5 23  1  0
  7 24  1  0
  7 25  1  0
  7 26  1  0
 10 27  1  0
 11 28  1  0
 12 29  1  0
 13 30  1  0
 15 31  1  0
M  END
