
     RDKit          3D

 84 93  0  0  0  0  0  0  0  0999 V2000
   -5.6162    7.1720    1.0223 N   0  0  0  0  0  0  0  0  0  0  0  0
   -4.5140    6.6987    1.2123 C   0  0  0  0  0  0  0  0  0  0  0  0
   -3.1497    6.1179    1.4690 C   0  0  0  0  0  0  0  0  0  0  0  0
   -3.0191    4.8808    1.9982 C   0  0  0  0  0  0  0  0  0  0  0  0
   -1.7841    4.1845    1.7432 C   0  0  0  0  0  0  0  0  0  0  0  0
   -1.7748    2.8342    2.0455 N   0  0  0  0  0  0  0  0  0  0  0  0
   -0.7279    2.1090    1.5383 C   0  0  0  0  0  0  0  0  0  0  0  0
    0.2013    2.7135    0.8091 C   0  0  0  0  0  0  0  0  0  0  0  0
    0.2409    4.0250    0.5149 N   0  0  0  0  0  0  0  0  0  0  0  0
   -0.7973    4.7328    1.0210 C   0  0  0  0  0  0  0  0  0  0  0  0
   -0.9584    6.0635    0.5057 C   0  0  0  0  0  0  0  0  0  0  0  0
   -2.1425    6.6843    0.7525 C   0  0  0  0  0  0  0  0  0  0  0  0
   -2.4293    7.9993    0.1338 C   0  0  0  0  0  0  0  0  0  0  0  0
   -2.6619    9.1346   -0.3985 N   0  0  0  0  0  0  0  0  0  0  0  0
    0.9529    1.7414   -0.1719 C   0  0  0  0  0  0  0  0  0  0  0  0
   -0.3222    0.9836   -0.6467 C   0  0  0  0  0  0  0  0  0  0  0  0
   -0.7789    1.0211   -1.9465 C   0  0  0  0  0  0  0  0  0  0  0  0
   -1.9182    0.2052   -2.1824 C   0  0  0  0  0  0  0  0  0  0  0  0
   -2.5390   -0.5943   -1.2115 C   0  0  0  0  0  0  0  0  0  0  0  0
   -3.7706   -1.2142   -1.5021 N   0  0  0  0  0  0  0  0  0  0  0  0
   -4.0569   -1.2559   -2.9844 C   0  0  0  0  0  0  0  0  0  0  0  0
   -3.1155   -1.8294   -3.7101 C   0  0  0  0  0  0  0  0  0  0  0  0
   -3.3251   -1.6842   -5.2208 C   0  0  0  0  0  0  0  0  0  0  0  0
   -4.4711   -0.9879   -5.4534 C   0  0  0  0  0  0  0  0  0  0  0  0
   -5.3491   -0.4621   -4.7799 C   0  0  0  0  0  0  0  0  0  0  0  0
   -5.1731   -0.5784   -3.2688 C   0  0  0  0  0  0  0  0  0  0  0  0
   -4.4432   -2.1832   -0.8108 C   0  0  0  0  0  0  0  0  0  0  0  0
   -5.1410   -3.1993   -1.6591 C   0  0  0  0  0  0  0  0  0  0  0  0
   -5.4072   -4.3126   -0.7645 C   0  0  0  0  0  0  0  0  0  0  0  0
   -5.1814   -4.5189    0.4586 C   0  0  0  0  0  0  0  0  0  0  0  0
   -4.3702   -3.2770    1.3270 C   0  0  0  0  0  0  0  0  0  0  0  0
   -4.3129   -2.5937    0.3882 C   0  0  0  0  0  0  0  0  0  0  0  0
   -2.0299   -0.5927    0.0685 C   0  0  0  0  0  0  0  0  0  0  0  0
   -0.9407    0.2279    0.2692 C   0  0  0  0  0  0  0  0  0  0  0  0
   -0.5999    0.6239    1.7282 C   0  0  0  0  0  0  0  0  0  0  0  0
    0.8079    0.2251    1.7543 C   0  0  0  0  0  0  0  0  0  0  0  0
    1.2790   -0.6794    2.6439 C   0  0  0  0  0  0  0  0  0  0  0  0
    2.5695   -1.1477    2.5124 C   0  0  0  0  0  0  0  0  0  0  0  0
    3.3087   -0.6498    1.4855 C   0  0  0  0  0  0  0  0  0  0  0  0
    4.6220   -1.2447    1.2391 N   0  0  0  0  0  0  0  0  0  0  0  0
    5.0171   -1.5099   -0.0313 C   0  0  0  0  0  0  0  0  0  0  0  0
    6.3225   -1.3394   -0.5187 C   0  0  0  0  0  0  0  0  0  0  0  0
    6.6546   -1.5676   -1.8482 C   0  0  0  0  0  0  0  0  0  0  0  0
    5.7272   -1.9698   -2.7743 C   0  0  0  0  0  0  0  0  0  0  0  0
    4.3876   -2.1493   -2.3337 C   0  0  0  0  0  0  0  0  0  0  0  0
    4.1425   -1.9243   -1.0799 C   0  0  0  0  0  0  0  0  0  0  0  0
    5.3705   -1.3991    2.4261 C   0  0  0  0  0  0  0  0  0  0  0  0
    5.4643   -0.2780    3.2762 C   0  0  0  0  0  0  0  0  0  0  0  0
    6.0584   -0.3320    4.4518 C   0  0  0  0  0  0  0  0  0  0  0  0
    6.6135   -1.5883    4.8556 C   0  0  0  0  0  0  0  0  0  0  0  0
    6.5338   -2.6612    4.0982 C   0  0  0  0  0  0  0  0  0  0  0  0
    5.9100   -2.5949    2.8544 C   0  0  0  0  0  0  0  0  0  0  0  0
    2.8691    0.2766    0.5793 C   0  0  0  0  0  0  0  0  0  0  0  0
    1.5442    0.7351    0.7126 C   0  0  0  0  0  0  0  0  0  0  0  0
   -3.7749    4.4151    2.5915 H   0  0  0  0  0  0  0  0  0  0  0  0
   -0.1297    6.4832   -0.0855 H   0  0  0  0  0  0  0  0  0  0  0  0
    1.4766    2.2429   -0.8956 H   0  0  0  0  0  0  0  0  0  0  0  0
   -0.2996    1.5871   -2.7050 H   0  0  0  0  0  0  0  0  0  0  0  0
   -2.3135    0.2735   -3.1869 H   0  0  0  0  0  0  0  0  0  0  0  0
   -2.2415   -2.3540   -3.4709 H   0  0  0  0  0  0  0  0  0  0  0  0
   -2.6063   -2.1203   -5.8092 H   0  0  0  0  0  0  0  0  0  0  0  0
   -4.5693   -0.8983   -6.6647 H   0  0  0  0  0  0  0  0  0  0  0  0
   -6.2615    0.0905   -4.9838 H   0  0  0  0  0  0  0  0  0  0  0  0
   -5.8742   -0.1221   -2.6564 H   0  0  0  0  0  0  0  0  0  0  0  0
   -5.3385   -3.0774   -2.6266 H   0  0  0  0  0  0  0  0  0  0  0  0
   -5.9630   -5.1627   -1.3277 H   0  0  0  0  0  0  0  0  0  0  0  0
   -5.3569   -5.2897    1.1457 H   0  0  0  0  0  0  0  0  0  0  0  0
   -4.4360   -3.9752    2.2584 H   0  0  0  0  0  0  0  0  0  0  0  0
   -4.1872   -1.3534    1.0039 H   0  0  0  0  0  0  0  0  0  0  0  0
   -2.3687   -1.1576    0.8982 H   0  0  0  0  0  0  0  0  0  0  0  0
   -1.3017    0.2060    2.4039 H   0  0  0  0  0  0  0  0  0  0  0  0
    0.6622   -1.0663    3.4798 H   0  0  0  0  0  0  0  0  0  0  0  0
    3.0787   -1.8182    3.1747 H   0  0  0  0  0  0  0  0  0  0  0  0
    7.0733   -1.0160    0.1866 H   0  0  0  0  0  0  0  0  0  0  0  0
    7.7383   -1.4576   -2.1311 H   0  0  0  0  0  0  0  0  0  0  0  0
    5.9648   -2.1782   -3.7883 H   0  0  0  0  0  0  0  0  0  0  0  0
    3.6688   -2.4741   -3.0479 H   0  0  0  0  0  0  0  0  0  0  0  0
    3.0716   -2.0321   -0.6660 H   0  0  0  0  0  0  0  0  0  0  0  0
    4.9946    0.6273    2.9155 H   0  0  0  0  0  0  0  0  0  0  0  0
    6.1457    0.5136    5.1270 H   0  0  0  0  0  0  0  0  0  0  0  0
    7.1494   -1.5354    5.8602 H   0  0  0  0  0  0  0  0  0  0  0  0
    6.9745   -3.5855    4.4180 H   0  0  0  0  0  0  0  0  0  0  0  0
    5.8368   -3.5090    2.2721 H   0  0  0  0  0  0  0  0  0  0  0  0
    3.4114    0.6730   -0.2872 H   0  0  0  0  0  0  0  0  0  0  0  0
  1  2  3  0
  2  3  1  0
  3  4  2  0
  4  5  1  0
  5  6  2  0
  6  7  1  0
  7  8  2  0
  8  9  1  0
  9 10  2  0
 10 11  1  0
 11 12  2  0
 12 13  1  0
 13 14  3  0
  8 15  1  0
 15 16  1  0
 16 17  2  0
 17 18  1  0
 18 19  2  0
 19 20  1  0
 20 21  1  0
 21 22  2  0
 22 23  1  0
 23 24  2  0
 24 25  1  0
 25 26  2  0
 20 27  1  0
 27 28  2  0
 28 29  1  0
 29 30  2  0
 30 31  1  0
 31 32  2  0
 19 33  1  0
 33 34  2  0
 34 35  1  0
 35 36  1  0
 36 37  2  0
 37 38  1  0
 38 39  2  0
 39 40  1  0
 40 41  1  0
 41 42  2  0
 42 43  1  0
 43 44  2  0
 44 45  1  0
 45 46  2  0
 40 47  1  0
 47 48  2  0
 48 49  1  0
 49 50  2  0
 50 51  1  0
 51 52  2  0
 39 53  1  0
 53 54  2  0
 12  3  1  0
 54 15  1  0
 10  5  1  0
 34 16  1  0
 54 36  1  0
 35  7  1  0
 46 41  1  0
 52 47  1  0
 26 21  1  0
 32 27  1  0
  4 55  1  0
 11 56  1  0
 15 57  1  0
 17 58  1  0
 18 59  1  0
 22 60  1  0
 23 61  1  0
 24 62  1  0
 25 63  1  0
 26 64  1  0
 28 65  1  0
 29 66  1  0
 30 67  1  0
 31 68  1  0
 32 69  1  0
 33 70  1  0
 35 71  1  0
 37 72  1  0
 38 73  1  0
 42 74  1  0
 43 75  1  0
 44 76  1  0
 45 77  1  0
 46 78  1  0
 48 79  1  0
 49 80  1  0
 50 81  1  0
 51 82  1  0
 52 83  1  0
 53 84  1  0
M  END
