
     RDKit          3D

 56 63  0  0  0  0  0  0  0  0999 V2000
   -0.7133    6.0563   -0.5691 C   0  0  0  0  0  0  0  0  0  0  0  0
    0.6590    6.0812   -0.5840 C   0  0  0  0  0  0  0  0  0  0  0  0
    1.3819    4.9058   -0.4810 C   0  0  0  0  0  0  0  0  0  0  0  0
    0.7196    3.7218   -0.3647 C   0  0  0  0  0  0  0  0  0  0  0  0
    1.3595    2.5463   -0.2610 N   0  0  0  0  0  0  0  0  0  0  0  0
    0.7150    1.3570   -0.1444 C   0  0  0  0  0  0  0  0  0  0  0  0
    1.4345    0.1325   -0.0363 N   0  0  0  0  0  0  0  0  0  0  0  0
    1.6954   -0.7072   -1.0569 C   0  0  0  0  0  0  0  0  0  0  0  0
    1.4105   -0.7058   -2.4089 C   0  0  0  0  0  0  0  0  0  0  0  0
    1.8258   -1.7360   -3.2217 C   0  0  0  0  0  0  0  0  0  0  0  0
    2.5383   -2.7996   -2.7111 C   0  0  0  0  0  0  0  0  0  0  0  0
    2.8175   -2.7875   -1.3509 C   0  0  0  0  0  0  0  0  0  0  0  0
    2.4155   -1.7704   -0.5101 C   0  0  0  0  0  0  0  0  0  0  0  0
    2.5720   -1.5419    0.8379 C   0  0  0  0  0  0  0  0  0  0  0  0
    3.1996   -2.2605    1.8575 C   0  0  0  0  0  0  0  0  0  0  0  0
    3.2185   -1.8029    3.1570 C   0  0  0  0  0  0  0  0  0  0  0  0
    2.6000   -0.6077    3.4415 C   0  0  0  0  0  0  0  0  0  0  0  0
    1.9822    0.0966    2.4296 C   0  0  0  0  0  0  0  0  0  0  0  0
    1.9479   -0.3399    1.1154 C   0  0  0  0  0  0  0  0  0  0  0  0
   -0.6596    1.3675   -0.1328 C   0  0  0  0  0  0  0  0  0  0  0  0
   -1.3958    0.1581   -0.0140 N   0  0  0  0  0  0  0  0  0  0  0  0
   -1.9381   -0.5491   -1.0224 C   0  0  0  0  0  0  0  0  0  0  0  0
   -1.9643   -0.3520   -2.3890 C   0  0  0  0  0  0  0  0  0  0  0  0
   -2.6070   -1.2472   -3.2245 C   0  0  0  0  0  0  0  0  0  0  0  0
   -3.2330   -2.3490   -2.7266 C   0  0  0  0  0  0  0  0  0  0  0  0
   -3.2119   -2.5556   -1.3500 C   0  0  0  0  0  0  0  0  0  0  0  0
   -2.5756   -1.6710   -0.5132 C   0  0  0  0  0  0  0  0  0  0  0  0
   -2.4226   -1.6562    0.8543 C   0  0  0  0  0  0  0  0  0  0  0  0
   -2.8315   -2.4895    1.8759 C   0  0  0  0  0  0  0  0  0  0  0  0
   -2.5358   -2.2286    3.1907 C   0  0  0  0  0  0  0  0  0  0  0  0
   -1.8151   -1.1070    3.4778 C   0  0  0  0  0  0  0  0  0  0  0  0
   -1.4044   -0.2711    2.4590 C   0  0  0  0  0  0  0  0  0  0  0  0
   -1.6815   -0.4991    1.1243 C   0  0  0  0  0  0  0  0  0  0  0  0
   -1.3087    2.5653   -0.2385 N   0  0  0  0  0  0  0  0  0  0  0  0
   -0.6580    3.7102   -0.3511 C   0  0  0  0  0  0  0  0  0  0  0  0
   -1.4109    4.8752   -0.4527 C   0  0  0  0  0  0  0  0  0  0  0  0
   -1.2574    6.9828   -0.6505 H   0  0  0  0  0  0  0  0  0  0  0  0
    1.1851    7.0055   -0.6749 H   0  0  0  0  0  0  0  0  0  0  0  0
    2.4618    4.8965   -0.4900 H   0  0  0  0  0  0  0  0  0  0  0  0
    0.8593    0.1007   -2.8618 H   0  0  0  0  0  0  0  0  0  0  0  0
    1.6176   -1.7629   -4.2847 H   0  0  0  0  0  0  0  0  0  0  0  0
    2.8718   -3.6142   -3.3293 H   0  0  0  0  0  0  0  0  0  0  0  0
    3.3774   -3.6136   -0.9240 H   0  0  0  0  0  0  0  0  0  0  0  0
    3.6641   -3.1888    1.5627 H   0  0  0  0  0  0  0  0  0  0  0  0
    3.7091   -2.3746    3.9281 H   0  0  0  0  0  0  0  0  0  0  0  0
    2.6133   -0.2409    4.4741 H   0  0  0  0  0  0  0  0  0  0  0  0
    1.5117    1.0301    2.7033 H   0  0  0  0  0  0  0  0  0  0  0  0
   -1.4918    0.5036   -2.8726 H   0  0  0  0  0  0  0  0  0  0  0  0
   -2.6118   -1.0661   -4.3037 H   0  0  0  0  0  0  0  0  0  0  0  0
   -3.7396   -3.0565   -3.3744 H   0  0  0  0  0  0  0  0  0  0  0  0
   -3.7186   -3.4390   -0.9936 H   0  0  0  0  0  0  0  0  0  0  0  0
   -3.4001   -3.3701    1.6247 H   0  0  0  0  0  0  0  0  0  0  0  0
   -2.8618   -2.8897    3.9842 H   0  0  0  0  0  0  0  0  0  0  0  0
   -1.5769   -0.8953    4.5280 H   0  0  0  0  0  0  0  0  0  0  0  0
   -0.8439    0.6082    2.6888 H   0  0  0  0  0  0  0  0  0  0  0  0
   -2.4947    4.8455   -0.4401 H   0  0  0  0  0  0  0  0  0  0  0  0
  1  2  2  0
  2  3  1  0
  3  4  2  0
  4  5  1  0
  5  6  2  0
  6  7  1  0
  7  8  1  0
  8  9  2  0
  9 10  1  0
 10 11  2  0
 11 12  1  0
 12 13  2  0
 13 14  1  0
 14 15  2  0
 15 16  1  0
 16 17  2  0
 17 18  1  0
 18 19  2  0
  6 20  1  0
 20 21  1  0
 21 22  1  0
 22 23  2  0
 23 24  1  0
 24 25  2  0
 25 26  1  0
 26 27  2  0
 27 28  1  0
 28 29  2  0
 29 30  1  0
 30 31  2  0
 31 32  1  0
 32 33  2  0
 20 34  2  0
 34 35  1  0
 35 36  2  0
 36  1  1  0
 35  4  1  0
 19  7  1  0
 33 21  1  0
 13  8  1  0
 19 14  1  0
 27 22  1  0
 33 28  1  0
  1 37  1  0
  2 38  1  0
  3 39  1  0
  9 40  1  0
 10 41  1  0
 11 42  1  0
 12 43  1  0
 15 44  1  0
 16 45  1  0
 17 46  1  0
 18 47  1  0
 23 48  1  0
 24 49  1  0
 25 50  1  0
 26 51  1  0
 29 52  1  0
 30 53  1  0
 31 54  1  0
 32 55  1  0
 36 56  1  0
M  END
