
     RDKit          3D

 32 34  0  0  0  0  0  0  0  0999 V2000
   -6.6083    1.0226   -1.0150 O   0  0  0  0  0  0  0  0  0  0  0  0
   -6.2245    0.1172   -0.2546 N   0  0  0  0  0  4  0  0  0  0  0  0
   -7.2008   -0.6592    0.3310 O   0  0  0  0  0  1  0  0  0  0  0  0
   -4.8512   -0.1083   -0.0001 C   0  0  0  0  0  0  0  0  0  0  0  0
   -4.3946   -1.0970    0.8321 C   0  0  0  0  0  0  0  0  0  0  0  0
   -3.0421   -1.3190    1.0827 C   0  0  0  0  0  0  0  0  0  0  0  0
   -2.1221   -0.5012    0.4604 C   0  0  0  0  0  0  0  0  0  0  0  0
   -0.7110   -0.7251    0.7155 C   0  0  0  0  0  0  0  0  0  0  0  0
    0.2711   -0.0199    0.1886 C   0  0  0  0  0  0  0  0  0  0  0  0
    1.6672   -0.3014    0.4900 C   0  0  0  0  0  0  0  0  0  0  0  0
    2.1478   -1.2900    1.3234 C   0  0  0  0  0  0  0  0  0  0  0  0
    3.4892   -1.2701    1.3755 N   0  0  0  0  0  0  0  0  0  0  0  0
    3.8760   -0.2603    0.5689 C   0  0  0  0  0  0  0  0  0  0  0  0
    5.1612    0.1922    0.2642 C   0  0  0  0  0  0  0  0  0  0  0  0
    5.2820    1.2566   -0.6005 C   0  0  0  0  0  0  0  0  0  0  0  0
    4.1832    1.8750   -1.1625 C   0  0  0  0  0  0  0  0  0  0  0  0
    2.9145    1.4386   -0.8701 C   0  0  0  0  0  0  0  0  0  0  0  0
    2.7793    0.3575    0.0076 C   0  0  0  0  0  0  0  0  0  0  0  0
   -2.5731    0.4878   -0.3719 C   0  0  0  0  0  0  0  0  0  0  0  0
   -3.9274    0.7015   -0.6157 C   0  0  0  0  0  0  0  0  0  0  0  0
   -5.1452   -1.7277    1.3100 H   0  0  0  0  0  0  0  0  0  0  0  0
   -2.7875   -2.1121    1.7447 H   0  0  0  0  0  0  0  0  0  0  0  0
   -0.3761   -1.5296    1.3908 H   0  0  0  0  0  0  0  0  0  0  0  0
    0.0550    0.7922   -0.4869 H   0  0  0  0  0  0  0  0  0  0  0  0
    1.5447   -2.0033    1.8763 H   0  0  0  0  0  0  0  0  0  0  0  0
    4.1037   -1.9117    1.9318 H   0  0  0  0  0  0  0  0  0  0  0  0
    6.0382   -0.2780    0.6937 H   0  0  0  0  0  0  0  0  0  0  0  0
    6.2680    1.6500   -0.8721 H   0  0  0  0  0  0  0  0  0  0  0  0
    4.3350    2.7039   -1.8330 H   0  0  0  0  0  0  0  0  0  0  0  0
    2.0140    1.8885   -1.2842 H   0  0  0  0  0  0  0  0  0  0  0  0
   -1.8870    1.1462   -0.8756 H   0  0  0  0  0  0  0  0  0  0  0  0
   -4.2791    1.4843   -1.2741 H   0  0  0  0  0  0  0  0  0  0  0  0
  1  2  2  0
  2  3  1  0
  2  4  1  0
  4  5  2  0
  5  6  1  0
  6  7  2  0
  7  8  1  0
  8  9  2  0
  9 10  1  0
 10 11  2  0
 11 12  1  0
 12 13  1  0
 13 14  2  0
 14 15  1  0
 15 16  2  0
 16 17  1  0
 17 18  2  0
  7 19  1  0
 19 20  2  0
 20  4  1  0
 18 10  1  0
 18 13  1  0
  5 21  1  0
  6 22  1  0
  8 23  1  0
  9 24  1  0
 11 25  1  0
 12 26  1  0
 14 27  1  0
 15 28  1  0
 16 29  1  0
 17 30  1  0
 19 31  1  0
 20 32  1  0
M  CHG  2   2   1   3  -1
M  END
