
     RDKit          3D

 12 12  0  0  0  0  0  0  0  0999 V2000
   -1.0983    0.8228   -0.0022 C   0  0  0  0  0  0  0  0  0  0  0  0
    0.1526    1.3752    0.0163 C   0  0  0  0  0  0  0  0  0  0  0  0
    1.2531    0.5644    0.0187 C   0  0  0  0  0  0  0  0  0  0  0  0
    1.0994   -0.8262    0.0021 C   0  0  0  0  0  0  0  0  0  0  0  0
   -0.1510   -1.3802   -0.0164 C   0  0  0  0  0  0  0  0  0  0  0  0
   -1.2512   -0.5671   -0.0187 C   0  0  0  0  0  0  0  0  0  0  0  0
   -2.0123    1.4380   -0.0047 H   0  0  0  0  0  0  0  0  0  0  0  0
    0.2657    2.4380    0.0289 H   0  0  0  0  0  0  0  0  0  0  0  0
    2.2653    0.9918    0.0334 H   0  0  0  0  0  0  0  0  0  0  0  0
    2.0184   -1.4341    0.0048 H   0  0  0  0  0  0  0  0  0  0  0  0
   -0.2714   -2.4420   -0.0290 H   0  0  0  0  0  0  0  0  0  0  0  0
   -2.2704   -0.9805   -0.0334 H   0  0  0  0  0  0  0  0  0  0  0  0
  1  2  2  0
  2  3  1  0
  3  4  2  0
  4  5  1  0
  5  6  2  0
  6  1  1  0
  1  7  1  0
  2  8  1  0
  3  9  1  0
  4 10  1  0
  5 11  1  0
  6 12  1  0
M  END
