
     RDKit          3D

 32 34  0  0  0  0  0  0  0  0999 V2000
   -6.1361    0.2454    0.2388 N   0  0  0  0  0  0  0  0  0  0  0  0
   -4.7174    0.2075    0.1484 C   0  0  0  0  0  0  0  0  0  0  0  0
   -4.1228    1.2393   -0.5627 C   0  0  0  0  0  0  0  0  0  0  0  0
   -2.7499    1.2786   -0.6676 C   0  0  0  0  0  0  0  0  0  0  0  0
   -1.9304    0.3277   -0.0887 C   0  0  0  0  0  0  0  0  0  0  0  0
   -0.5772    0.3866   -0.1404 C   0  0  0  0  0  0  0  0  0  0  0  0
    0.2483   -0.5666    0.5117 C   0  0  0  0  0  0  0  0  0  0  0  0
    1.6990   -0.3838    0.4124 C   0  0  0  0  0  0  0  0  0  0  0  0
    2.5762   -0.5108    1.4473 C   0  0  0  0  0  0  0  0  0  0  0  0
    3.9416   -0.3113    1.2396 C   0  0  0  0  0  0  0  0  0  0  0  0
    4.4640    0.0193   -0.0025 C   0  0  0  0  0  0  0  0  0  0  0  0
    5.8998    0.2909   -0.1636 C   0  0  0  0  0  0  0  0  0  0  0  0
    6.6991   -0.6487    0.4118 F   0  0  0  0  0  0  0  0  0  0  0  0
    6.1070    1.5583    0.3524 F   0  0  0  0  0  0  0  0  0  0  0  0
    6.1610    0.2804   -1.5318 F   0  0  0  0  0  0  0  0  0  0  0  0
    3.5655    0.1434   -1.0562 C   0  0  0  0  0  0  0  0  0  0  0  0
    2.2055   -0.0491   -0.8662 C   0  0  0  0  0  0  0  0  0  0  0  0
   -0.3440   -1.4787    1.1482 O   0  0  0  0  0  0  0  0  0  0  0  0
   -1.6690   -1.5945    1.2329 C   0  0  0  0  0  0  0  0  0  0  0  0
   -2.1450   -2.5436    1.8894 O   0  0  0  0  0  0  0  0  0  0  0  0
   -2.5388   -0.7146    0.6309 C   0  0  0  0  0  0  0  0  0  0  0  0
   -3.9058   -0.7484    0.7304 C   0  0  0  0  0  0  0  0  0  0  0  0
   -6.6473    1.0262    0.7561 H   0  0  0  0  0  0  0  0  0  0  0  0
   -6.7642   -0.4651   -0.1837 H   0  0  0  0  0  0  0  0  0  0  0  0
   -4.7405    2.0079   -1.0122 H   0  0  0  0  0  0  0  0  0  0  0  0
   -2.2855    2.0912   -1.2197 H   0  0  0  0  0  0  0  0  0  0  0  0
   -0.0930    1.1657   -0.7055 H   0  0  0  0  0  0  0  0  0  0  0  0
    2.1368   -0.7462    2.4098 H   0  0  0  0  0  0  0  0  0  0  0  0
    4.5545   -0.4290    2.1188 H   0  0  0  0  0  0  0  0  0  0  0  0
    3.9737    0.4155   -1.9998 H   0  0  0  0  0  0  0  0  0  0  0  0
    1.5235    0.0474   -1.6960 H   0  0  0  0  0  0  0  0  0  0  0  0
   -4.3888   -1.5407    1.2884 H   0  0  0  0  0  0  0  0  0  0  0  0
  1  2  1  0
  2  3  2  0
  3  4  1  0
  4  5  2  0
  5  6  1  0
  6  7  2  0
  7  8  1  0
  8  9  2  0
  9 10  1  0
 10 11  2  0
 11 12  1  0
 12 13  1  0
 12 14  1  0
 12 15  1  0
 11 16  1  0
 16 17  2  0
  7 18  1  0
 18 19  1  0
 19 20  2  0
 19 21  1  0
 21 22  2  0
 22  2  1  0
 21  5  1  0
 17  8  1  0
  1 23  1  0
  1 24  1  0
  3 25  1  0
  4 26  1  0
  6 27  1  0
  9 28  1  0
 10 29  1  0
 16 30  1  0
 17 31  1  0
 22 32  1  0
M  END
