
     RDKit          3D

 46 50  0  0  0  0  0  0  0  0999 V2000
    5.5464   -0.5105   -1.3031 C   0  0  0  0  0  0  0  0  0  0  0  0
    4.2063   -0.2048   -0.7344 C   0  0  0  0  0  0  0  0  0  0  0  0
    4.0865    0.2662    0.5564 C   0  0  0  0  0  0  0  0  0  0  0  0
    2.8284    0.5561    1.0982 C   0  0  0  0  0  0  0  0  0  0  0  0
    1.6712    0.3838    0.3707 C   0  0  0  0  0  0  0  0  0  0  0  0
    0.3094    0.6593    0.8712 C   0  0  0  0  0  0  0  0  0  0  0  0
   -0.4161    1.6497    0.0848 C   0  0  0  0  0  0  0  0  0  0  0  0
   -1.6319    1.4959   -0.4002 C   0  0  0  0  0  0  0  0  0  0  0  0
   -2.3598    2.5160   -1.2011 C   0  0  0  0  0  0  0  0  0  0  0  0
   -1.5996    3.7527   -1.4827 C   0  0  0  0  0  0  0  0  0  0  0  0
   -0.1123    3.5792   -1.4837 C   0  0  0  0  0  0  0  0  0  0  0  0
    0.2441    2.9312   -0.1960 C   0  0  0  0  0  0  0  0  0  0  0  0
    1.0646    3.4454    0.6136 O   0  0  0  0  0  0  0  0  0  0  0  0
   -2.3059    0.2515   -0.1333 N   0  0  0  0  0  0  0  0  0  0  0  0
   -1.6717   -0.7681    0.6284 C   0  0  0  0  0  0  0  0  0  0  0  0
   -0.4014   -0.6085    1.1360 C   0  0  0  0  0  0  0  0  0  0  0  0
    0.2225   -1.6138    1.8887 C   0  0  0  0  0  0  0  0  0  0  0  0
    1.3853   -1.4277    2.3350 O   0  0  0  0  0  0  0  0  0  0  0  0
   -0.4500   -2.7084    2.0891 O   0  0  0  0  0  0  0  0  0  0  0  0
   -1.6557   -2.9314    1.6404 C   0  0  0  0  0  0  0  0  0  0  0  0
   -2.3241   -4.1233    1.8878 C   0  0  0  0  0  0  0  0  0  0  0  0
   -3.5959   -4.3554    1.4130 C   0  0  0  0  0  0  0  0  0  0  0  0
   -4.2229   -3.3710    0.6686 C   0  0  0  0  0  0  0  0  0  0  0  0
   -3.5798   -2.1752    0.4078 C   0  0  0  0  0  0  0  0  0  0  0  0
   -2.3336   -1.9659    0.8815 C   0  0  0  0  0  0  0  0  0  0  0  0
    1.7998   -0.0890   -0.9236 C   0  0  0  0  0  0  0  0  0  0  0  0
    3.0420   -0.3738   -1.4550 C   0  0  0  0  0  0  0  0  0  0  0  0
    5.5320   -0.5077   -2.4130 H   0  0  0  0  0  0  0  0  0  0  0  0
    6.2910    0.2819   -1.0201 H   0  0  0  0  0  0  0  0  0  0  0  0
    5.9217   -1.5042   -0.9911 H   0  0  0  0  0  0  0  0  0  0  0  0
    4.9780    0.4150    1.1625 H   0  0  0  0  0  0  0  0  0  0  0  0
    2.7267    0.9301    2.1067 H   0  0  0  0  0  0  0  0  0  0  0  0
    0.4509    1.1234    1.8971 H   0  0  0  0  0  0  0  0  0  0  0  0
   -2.7189    2.0172   -2.1265 H   0  0  0  0  0  0  0  0  0  0  0  0
   -3.2977    2.7519   -0.6196 H   0  0  0  0  0  0  0  0  0  0  0  0
   -1.8346    4.5080   -0.6758 H   0  0  0  0  0  0  0  0  0  0  0  0
   -1.9218    4.2160   -2.4329 H   0  0  0  0  0  0  0  0  0  0  0  0
    0.1805    2.9797   -2.3722 H   0  0  0  0  0  0  0  0  0  0  0  0
    0.3712    4.5761   -1.5163 H   0  0  0  0  0  0  0  0  0  0  0  0
   -3.2513    0.1729   -0.5297 H   0  0  0  0  0  0  0  0  0  0  0  0
   -1.8021   -4.8821    2.4793 H   0  0  0  0  0  0  0  0  0  0  0  0
   -4.0496   -5.3044    1.6459 H   0  0  0  0  0  0  0  0  0  0  0  0
   -5.2215   -3.5873    0.3116 H   0  0  0  0  0  0  0  0  0  0  0  0
   -4.1254   -1.4687   -0.1702 H   0  0  0  0  0  0  0  0  0  0  0  0
    0.8904   -0.2356   -1.5273 H   0  0  0  0  0  0  0  0  0  0  0  0
    3.1346   -0.7426   -2.4663 H   0  0  0  0  0  0  0  0  0  0  0  0
  1  2  1  0
  2  3  2  0
  3  4  1  0
  4  5  2  0
  5  6  1  0
  6  7  1  0
  7  8  2  0
  8  9  1  0
  9 10  1  0
 10 11  1  0
 11 12  1  0
 12 13  2  0
  8 14  1  0
 14 15  1  0
 15 16  2  0
 16 17  1  0
 17 18  2  0
 17 19  1  0
 19 20  1  0
 20 21  2  0
 21 22  1  0
 22 23  2  0
 23 24  1  0
 24 25  2  0
  5 26  1  0
 26 27  2  0
 27  2  1  0
 16  6  1  0
 25 20  1  0
 12  7  1  0
 25 15  1  0
  1 28  1  0
  1 29  1  0
  1 30  1  0
  3 31  1  0
  4 32  1  0
  6 33  1  0
  9 34  1  0
  9 35  1  0
 10 36  1  0
 10 37  1  0
 11 38  1  0
 11 39  1  0
 14 40  1  0
 21 41  1  0
 22 42  1  0
 23 43  1  0
 24 44  1  0
 26 45  1  0
 27 46  1  0
M  END
