
     RDKit          3D

 26 28  0  0  0  0  0  0  0  0999 V2000
   -2.6183   -2.4675    0.1101 C   0  0  0  0  0  0  0  0  0  0  0  0
   -1.4259   -1.6975    0.1165 O   0  0  0  0  0  0  0  0  0  0  0  0
   -1.5170   -0.3315   -0.1081 C   0  0  0  0  0  0  0  0  0  0  0  0
   -2.7122    0.3193   -0.3383 C   0  0  0  0  0  0  0  0  0  0  0  0
   -2.7381    1.6818   -0.5554 C   0  0  0  0  0  0  0  0  0  0  0  0
   -1.5319    2.3581   -0.5328 C   0  0  0  0  0  0  0  0  0  0  0  0
   -0.3263    1.7246   -0.3043 C   0  0  0  0  0  0  0  0  0  0  0  0
   -0.2990    0.3621   -0.0871 C   0  0  0  0  0  0  0  0  0  0  0  0
    1.0826   -0.0677    0.1282 C   0  0  0  0  0  0  0  0  0  0  0  0
    1.6453   -1.3028    0.3826 C   0  0  0  0  0  0  0  0  0  0  0  0
    3.0208   -1.4512    0.5530 C   0  0  0  0  0  0  0  0  0  0  0  0
    3.8685   -0.3672    0.4731 C   0  0  0  0  0  0  0  0  0  0  0  0
    3.3050    0.8659    0.2189 C   0  0  0  0  0  0  0  0  0  0  0  0
    1.9342    1.0155    0.0489 C   0  0  0  0  0  0  0  0  0  0  0  0
    1.0640    2.1605   -0.2243 C   0  0  0  0  0  0  0  0  0  0  0  0
    1.4562    3.3457   -0.3688 O   0  0  0  0  0  0  0  0  0  0  0  0
   -2.2828   -3.5351    0.2260 H   0  0  0  0  0  0  0  0  0  0  0  0
   -3.3021   -2.1912    0.9310 H   0  0  0  0  0  0  0  0  0  0  0  0
   -3.1598   -2.4027   -0.8557 H   0  0  0  0  0  0  0  0  0  0  0  0
   -3.6313   -0.2790   -0.3424 H   0  0  0  0  0  0  0  0  0  0  0  0
   -3.6661    2.1964   -0.7355 H   0  0  0  0  0  0  0  0  0  0  0  0
   -1.4946    3.4324   -0.6978 H   0  0  0  0  0  0  0  0  0  0  0  0
    0.9733   -2.1528    0.4445 H   0  0  0  0  0  0  0  0  0  0  0  0
    3.4558   -2.4240    0.7525 H   0  0  0  0  0  0  0  0  0  0  0  0
    4.9375   -0.5086    0.6096 H   0  0  0  0  0  0  0  0  0  0  0  0
    3.9624    1.7165    0.1554 H   0  0  0  0  0  0  0  0  0  0  0  0
  1  2  1  0
  2  3  1  0
  3  4  2  0
  4  5  1  0
  5  6  2  0
  6  7  1  0
  7  8  2  0
  8  9  1  0
  9 10  2  0
 10 11  1  0
 11 12  2  0
 12 13  1  0
 13 14  2  0
 14 15  1  0
 15 16  2  0
  8  3  1  0
 14  9  1  0
 15  7  1  0
  1 17  1  0
  1 18  1  0
  1 19  1  0
  4 20  1  0
  5 21  1  0
  6 22  1  0
 10 23  1  0
 11 24  1  0
 12 25  1  0
 13 26  1  0
M  END
