
     RDKit          3D

 35 38  0  0  0  0  0  0  0  0999 V2000
    2.3135   -1.9265    1.2532 O   0  0  0  0  0  0  0  0  0  0  0  0
    2.5106   -0.8660    0.6034 C   0  0  0  0  0  0  0  0  0  0  0  0
    3.8110   -0.2685    0.3703 C   0  0  0  0  0  0  0  0  0  0  0  0
    5.0925   -0.6122    0.7316 C   0  0  0  0  0  0  0  0  0  0  0  0
    6.1926    0.1368    0.3802 C   0  0  0  0  0  0  0  0  0  0  0  0
    5.9645    1.2806   -0.3701 C   0  0  0  0  0  0  0  0  0  0  0  0
    4.6919    1.6236   -0.7299 C   0  0  0  0  0  0  0  0  0  0  0  0
    3.5764    0.8828   -0.3853 C   0  0  0  0  0  0  0  0  0  0  0  0
    2.1383    1.0143   -0.6292 C   0  0  0  0  0  0  0  0  0  0  0  0
    1.5954    1.9430   -1.2776 O   0  0  0  0  0  0  0  0  0  0  0  0
    1.4897   -0.0843   -0.0058 N   0  0  0  0  0  0  0  0  0  0  0  0
    0.1011   -0.3932    0.0344 C   0  0  0  0  0  0  0  0  0  0  0  0
   -0.6550   -0.1246    1.1572 C   0  0  0  0  0  0  0  0  0  0  0  0
   -1.9939   -0.4393    1.1609 C   0  0  0  0  0  0  0  0  0  0  0  0
   -2.6336   -1.0183    0.0869 C   0  0  0  0  0  0  0  0  0  0  0  0
   -4.0822   -1.3249    0.1846 C   0  0  0  0  0  0  0  0  0  0  0  0
   -4.7825   -0.1223   -0.2767 N   0  0  0  0  0  0  0  0  0  0  0  0
   -5.1222    0.1031   -1.5539 C   0  0  0  0  0  0  0  0  0  0  0  0
   -5.7418    1.3117   -1.5348 N   0  0  0  0  0  0  0  0  0  0  0  0
   -5.7625    1.7788   -0.2740 C   0  0  0  0  0  0  0  0  0  0  0  0
   -5.1628    0.8724    0.4836 N   0  0  0  0  0  0  0  0  0  0  0  0
   -1.8859   -1.2871   -1.0324 C   0  0  0  0  0  0  0  0  0  0  0  0
   -0.5311   -0.9816   -1.0680 C   0  0  0  0  0  0  0  0  0  0  0  0
    5.2629   -1.5023    1.3174 H   0  0  0  0  0  0  0  0  0  0  0  0
    7.1979   -0.1196    0.6542 H   0  0  0  0  0  0  0  0  0  0  0  0
    6.7826    1.9269   -0.6874 H   0  0  0  0  0  0  0  0  0  0  0  0
    4.5296    2.5349   -1.3271 H   0  0  0  0  0  0  0  0  0  0  0  0
   -0.1500    0.3376    2.0189 H   0  0  0  0  0  0  0  0  0  0  0  0
   -2.5539   -0.2097    2.0699 H   0  0  0  0  0  0  0  0  0  0  0  0
   -4.3698   -2.2055   -0.4257 H   0  0  0  0  0  0  0  0  0  0  0  0
   -4.3520   -1.4808    1.2382 H   0  0  0  0  0  0  0  0  0  0  0  0
   -4.9193   -0.5655   -2.3643 H   0  0  0  0  0  0  0  0  0  0  0  0
   -6.2115    2.7344   -0.0208 H   0  0  0  0  0  0  0  0  0  0  0  0
   -2.3993   -1.7500   -1.8847 H   0  0  0  0  0  0  0  0  0  0  0  0
    0.0587   -1.1986   -1.9633 H   0  0  0  0  0  0  0  0  0  0  0  0
  1  2  2  0
  2  3  1  0
  3  4  2  0
  4  5  1  0
  5  6  2  0
  6  7  1  0
  7  8  2  0
  8  9  1  0
  9 10  2  0
  9 11  1  0
 11 12  1  0
 12 13  2  0
 13 14  1  0
 14 15  2  0
 15 16  1  0
 16 17  1  0
 17 18  1  0
 18 19  2  0
 19 20  1  0
 20 21  2  0
 15 22  1  0
 22 23  2  0
 11  2  1  0
 23 12  1  0
  8  3  1  0
 21 17  1  0
  4 24  1  0
  5 25  1  0
  6 26  1  0
  7 27  1  0
 13 28  1  0
 14 29  1  0
 16 30  1  0
 16 31  1  0
 18 32  1  0
 20 33  1  0
 22 34  1  0
 23 35  1  0
M  END
