
     RDKit          3D

 37 41  0  0  0  0  0  0  0  0999 V2000
   -0.4022    2.7239    0.8139 F   0  0  0  0  0  0  0  0  0  0  0  0
   -0.1099    1.7617   -0.2433 B   0  0  0  0  0  4  0  0  0  0  0  0
   -0.5631    2.3801   -1.5101 F   0  0  0  0  0  0  0  0  0  0  0  0
   -0.8361    0.4611    0.0104 N   0  0  0  0  0  0  0  0  0  0  0  0
   -2.2785    0.4260   -0.0227 C   0  0  0  0  0  0  0  0  0  0  0  0
   -2.9997   -0.4213   -0.8261 C   0  0  0  0  0  0  0  0  0  0  0  0
   -4.3782   -0.4384   -0.8346 C   0  0  0  0  0  0  0  0  0  0  0  0
   -5.0694    0.4321   -0.0013 C   0  0  0  0  0  0  0  0  0  0  0  0
   -4.3716    1.2778    0.8004 C   0  0  0  0  0  0  0  0  0  0  0  0
   -2.9848    1.2833    0.7979 C   0  0  0  0  0  0  0  0  0  0  0  0
   -0.1677   -0.7576    0.2829 C   0  0  0  0  0  0  0  0  0  0  0  0
   -0.8617   -1.9095    0.6272 C   0  0  0  0  0  0  0  0  0  0  0  0
   -0.2439   -3.1155    0.8856 C   0  0  0  0  0  0  0  0  0  0  0  0
    1.1178   -3.1506    0.7917 C   0  0  0  0  0  0  0  0  0  0  0  0
    1.8214   -1.9955    0.4483 C   0  0  0  0  0  0  0  0  0  0  0  0
    3.2075   -2.0773    0.3487 C   0  0  0  0  0  0  0  0  0  0  0  0
    3.9203   -0.9823    0.0086 C   0  0  0  0  0  0  0  0  0  0  0  0
    3.3177    0.2283   -0.2434 C   0  0  0  0  0  0  0  0  0  0  0  0
    4.0895    1.3216   -0.5970 C   0  0  0  0  0  0  0  0  0  0  0  0
    3.5075    2.5321   -0.8594 C   0  0  0  0  0  0  0  0  0  0  0  0
    2.1480    2.6346   -0.7624 C   0  0  0  0  0  0  0  0  0  0  0  0
    1.3774    1.5394   -0.4077 N   0  0  0  0  0  4  0  0  0  0  0  0
    1.9416    0.3494   -0.1524 C   0  0  0  0  0  0  0  0  0  0  0  0
    1.2196   -0.7949    0.1920 C   0  0  0  0  0  0  0  0  0  0  0  0
   -2.4883   -1.1011   -1.4826 H   0  0  0  0  0  0  0  0  0  0  0  0
   -4.9365   -1.1273   -1.4877 H   0  0  0  0  0  0  0  0  0  0  0  0
   -6.1524    0.3883   -0.0369 H   0  0  0  0  0  0  0  0  0  0  0  0
   -4.9314    1.9535    1.4473 H   0  0  0  0  0  0  0  0  0  0  0  0
   -2.5016    1.9853    1.4640 H   0  0  0  0  0  0  0  0  0  0  0  0
   -1.9403   -1.8385    0.7091 H   0  0  0  0  0  0  0  0  0  0  0  0
   -0.8120   -3.9906    1.1498 H   0  0  0  0  0  0  0  0  0  0  0  0
    1.6939   -4.0535    0.9751 H   0  0  0  0  0  0  0  0  0  0  0  0
    3.7056   -3.0064    0.5415 H   0  0  0  0  0  0  0  0  0  0  0  0
    4.9975   -1.0666   -0.0663 H   0  0  0  0  0  0  0  0  0  0  0  0
    5.1780    1.2000   -0.6632 H   0  0  0  0  0  0  0  0  0  0  0  0
    4.1423    3.3792   -1.1379 H   0  0  0  0  0  0  0  0  0  0  0  0
    1.6436    3.5691   -0.9595 H   0  0  0  0  0  0  0  0  0  0  0  0
  1  2  1  0
  2  3  1  0
  2  4  1  0
  4  5  1  0
  5  6  2  0
  6  7  1  0
  7  8  2  0
  8  9  1  0
  9 10  2  0
  4 11  1  0
 11 12  2  0
 12 13  1  0
 13 14  2  0
 14 15  1  0
 15 16  2  0
 16 17  1  0
 17 18  2  0
 18 19  1  0
 19 20  2  0
 20 21  1  0
 21 22  2  0
 22 23  1  0
 23 24  2  0
 22  2  1  0
 10  5  1  0
 24 11  1  0
 24 15  1  0
 23 18  1  0
  6 25  1  0
  7 26  1  0
  8 27  1  0
  9 28  1  0
 10 29  1  0
 12 30  1  0
 13 31  1  0
 14 32  1  0
 16 33  1  0
 17 34  1  0
 19 35  1  0
 20 36  1  0
 21 37  1  0
M  CHG  2   2  -1  22   1
M  END
