
     RDKit          3D

 68 74  0  0  0  0  0  0  0  0999 V2000
    0.9954    0.9350   -2.3399 O   0  0  0  0  0  0  0  0  0  0  0  0
    0.5337    0.5786   -1.2256 C   0  0  0  0  0  0  0  0  0  0  0  0
   -0.9054    0.5501   -0.9985 C   0  0  0  0  0  0  0  0  0  0  0  0
   -1.7968    0.9085   -1.9862 C   0  0  0  0  0  0  0  0  0  0  0  0
   -3.1778    0.8786   -1.7606 C   0  0  0  0  0  0  0  0  0  0  0  0
   -3.6964    0.5007   -0.5744 C   0  0  0  0  0  0  0  0  0  0  0  0
   -5.0594    0.4260   -0.1662 N   0  0  0  0  0  0  0  0  0  0  0  0
   -6.0137    1.4141   -0.3944 C   0  0  0  0  0  0  0  0  0  0  0  0
   -6.8264    1.9891    0.5904 C   0  0  0  0  0  0  0  0  0  0  0  0
   -7.8404    2.8748    0.3515 C   0  0  0  0  0  0  0  0  0  0  0  0
   -8.1180    3.2588   -0.9282 C   0  0  0  0  0  0  0  0  0  0  0  0
   -7.3565    2.7317   -1.9435 C   0  0  0  0  0  0  0  0  0  0  0  0
   -6.3206    1.8219   -1.6753 C   0  0  0  0  0  0  0  0  0  0  0  0
   -5.3765   -0.8732    0.3988 C   0  0  0  0  0  0  0  0  0  0  0  0
   -4.9282   -1.9996   -0.3141 C   0  0  0  0  0  0  0  0  0  0  0  0
   -5.1599   -3.2619    0.1391 C   0  0  0  0  0  0  0  0  0  0  0  0
   -5.8412   -3.4299    1.3087 C   0  0  0  0  0  0  0  0  0  0  0  0
   -6.2928   -2.3460    2.0296 C   0  0  0  0  0  0  0  0  0  0  0  0
   -6.0422   -1.0607    1.5438 C   0  0  0  0  0  0  0  0  0  0  0  0
   -2.7566    0.1354    0.4281 C   0  0  0  0  0  0  0  0  0  0  0  0
   -1.4074    0.1578    0.2273 C   0  0  0  0  0  0  0  0  0  0  0  0
   -0.4629   -0.2242    1.2801 C   0  0  0  0  0  0  0  0  0  0  0  0
   -0.9303   -0.5819    2.3986 O   0  0  0  0  0  0  0  0  0  0  0  0
    0.9916   -0.2071    1.0855 C   0  0  0  0  0  0  0  0  0  0  0  0
    1.8283   -0.5773    2.1128 C   0  0  0  0  0  0  0  0  0  0  0  0
    3.2253   -0.5494    1.8911 C   0  0  0  0  0  0  0  0  0  0  0  0
    3.7263   -0.1686    0.7015 C   0  0  0  0  0  0  0  0  0  0  0  0
    5.1071   -0.0954    0.3804 N   0  0  0  0  0  0  0  0  0  0  0  0
    6.0816    0.4607    1.1648 C   0  0  0  0  0  0  0  0  0  0  0  0
    6.3260    0.1140    2.4598 C   0  0  0  0  0  0  0  0  0  0  0  0
    7.2322    0.8215    3.2372 C   0  0  0  0  0  0  0  0  0  0  0  0
    7.9274    1.8933    2.7567 C   0  0  0  0  0  0  0  0  0  0  0  0
    7.6968    2.2531    1.4637 C   0  0  0  0  0  0  0  0  0  0  0  0
    6.7934    1.5572    0.6772 C   0  0  0  0  0  0  0  0  0  0  0  0
    5.4278   -0.8279   -0.8238 C   0  0  0  0  0  0  0  0  0  0  0  0
    4.8759   -2.1208   -0.9562 C   0  0  0  0  0  0  0  0  0  0  0  0
    5.0914   -2.9228   -2.0446 C   0  0  0  0  0  0  0  0  0  0  0  0
    5.8762   -2.4712   -3.0663 C   0  0  0  0  0  0  0  0  0  0  0  0
    6.4277   -1.2328   -2.9809 C   0  0  0  0  0  0  0  0  0  0  0  0
    6.1962   -0.4230   -1.8571 C   0  0  0  0  0  0  0  0  0  0  0  0
    2.8150    0.2054   -0.3304 C   0  0  0  0  0  0  0  0  0  0  0  0
    1.4650    0.1880   -0.1459 C   0  0  0  0  0  0  0  0  0  0  0  0
   -1.4764    1.2238   -2.9636 H   0  0  0  0  0  0  0  0  0  0  0  0
   -3.8305    1.1550   -2.5521 H   0  0  0  0  0  0  0  0  0  0  0  0
   -6.6416    1.7670    1.6230 H   0  0  0  0  0  0  0  0  0  0  0  0
   -8.4498    3.2985    1.1393 H   0  0  0  0  0  0  0  0  0  0  0  0
   -8.9127    3.9563   -1.1380 H   0  0  0  0  0  0  0  0  0  0  0  0
   -7.5797    3.0391   -2.9515 H   0  0  0  0  0  0  0  0  0  0  0  0
   -5.8425    1.4678   -2.5654 H   0  0  0  0  0  0  0  0  0  0  0  0
   -4.3994   -1.8237   -1.2238 H   0  0  0  0  0  0  0  0  0  0  0  0
   -4.7958   -4.1100   -0.4429 H   0  0  0  0  0  0  0  0  0  0  0  0
   -6.0083   -4.4624    1.6407 H   0  0  0  0  0  0  0  0  0  0  0  0
   -6.8295   -2.5095    2.9524 H   0  0  0  0  0  0  0  0  0  0  0  0
   -6.4037   -0.2606    2.1483 H   0  0  0  0  0  0  0  0  0  0  0  0
   -3.1035   -0.1805    1.4096 H   0  0  0  0  0  0  0  0  0  0  0  0
    1.4578   -0.8857    3.0736 H   0  0  0  0  0  0  0  0  0  0  0  0
    3.8607   -0.8497    2.7021 H   0  0  0  0  0  0  0  0  0  0  0  0
    5.8566   -0.7771    2.9323 H   0  0  0  0  0  0  0  0  0  0  0  0
    7.3895    0.5081    4.2597 H   0  0  0  0  0  0  0  0  0  0  0  0
    8.6426    2.4391    3.3933 H   0  0  0  0  0  0  0  0  0  0  0  0
    8.2385    3.1012    1.0599 H   0  0  0  0  0  0  0  0  0  0  0  0
    6.6459    1.9365   -0.3076 H   0  0  0  0  0  0  0  0  0  0  0  0
    4.2534   -2.4484   -0.1191 H   0  0  0  0  0  0  0  0  0  0  0  0
    4.6366   -3.9223   -2.0964 H   0  0  0  0  0  0  0  0  0  0  0  0
    6.0246   -3.1421   -3.9192 H   0  0  0  0  0  0  0  0  0  0  0  0
    7.0433   -0.8546   -3.7614 H   0  0  0  0  0  0  0  0  0  0  0  0
    6.6565    0.5520   -1.8457 H   0  0  0  0  0  0  0  0  0  0  0  0
    3.2365    0.5013   -1.2592 H   0  0  0  0  0  0  0  0  0  0  0  0
  1  2  2  0
  2  3  1  0
  3  4  2  0
  4  5  1  0
  5  6  2  0
  6  7  1  0
  7  8  1  0
  8  9  2  0
  9 10  1  0
 10 11  2  0
 11 12  1  0
 12 13  2  0
  7 14  1  0
 14 15  2  0
 15 16  1  0
 16 17  2  0
 17 18  1  0
 18 19  2  0
  6 20  1  0
 20 21  2  0
 21 22  1  0
 22 23  2  0
 22 24  1  0
 24 25  2  0
 25 26  1  0
 26 27  2  0
 27 28  1  0
 28 29  1  0
 29 30  2  0
 30 31  1  0
 31 32  2  0
 32 33  1  0
 33 34  2  0
 28 35  1  0
 35 36  2  0
 36 37  1  0
 37 38  2  0
 38 39  1  0
 39 40  2  0
 27 41  1  0
 41 42  2  0
 42  2  1  0
 21  3  1  0
 42 24  1  0
 13  8  1  0
 19 14  1  0
 34 29  1  0
 40 35  1  0
  4 43  1  0
  5 44  1  0
  9 45  1  0
 10 46  1  0
 11 47  1  0
 12 48  1  0
 13 49  1  0
 15 50  1  0
 16 51  1  0
 17 52  1  0
 18 53  1  0
 19 54  1  0
 20 55  1  0
 25 56  1  0
 26 57  1  0
 30 58  1  0
 31 59  1  0
 32 60  1  0
 33 61  1  0
 34 62  1  0
 36 63  1  0
 37 64  1  0
 38 65  1  0
 39 66  1  0
 40 67  1  0
 41 68  1  0
M  END
