
     RDKit          3D

 21 23  0  0  0  0  0  0  0  0999 V2000
   -3.2634   -0.1415    0.1362 C   0  0  0  0  0  0  0  0  0  0  0  0
   -2.6072   -1.2719    0.6087 C   0  0  0  0  0  0  0  0  0  0  0  0
   -1.2350   -1.3516    0.6114 C   0  0  0  0  0  0  0  0  0  0  0  0
   -0.5011   -0.3043    0.1428 C   0  0  0  0  0  0  0  0  0  0  0  0
   -1.0988    0.8496   -0.3412 C   0  0  0  0  0  0  0  0  0  0  0  0
   -2.4857    0.8980   -0.3301 C   0  0  0  0  0  0  0  0  0  0  0  0
   -0.1142    1.6801   -0.7221 N   0  0  0  0  0  0  0  0  0  0  0  0
    1.0836    1.1088   -0.5032 C   0  0  0  0  0  0  0  0  0  0  0  0
    2.3621    1.5351   -0.7166 N   0  0  0  0  0  0  0  0  0  0  0  0
    3.3845    0.7242   -0.3904 C   0  0  0  0  0  0  0  0  0  0  0  0
    3.1760   -0.5283    0.1548 C   0  0  0  0  0  0  0  0  0  0  0  0
    1.8930   -0.9777    0.3781 C   0  0  0  0  0  0  0  0  0  0  0  0
    0.8517   -0.1319    0.0373 C   0  0  0  0  0  0  0  0  0  0  0  0
   -4.3452   -0.0902    0.1390 H   0  0  0  0  0  0  0  0  0  0  0  0
   -3.2224   -2.0975    0.9790 H   0  0  0  0  0  0  0  0  0  0  0  0
   -0.7717   -2.2469    0.9870 H   0  0  0  0  0  0  0  0  0  0  0  0
   -2.9887    1.7924   -0.7043 H   0  0  0  0  0  0  0  0  0  0  0  0
   -0.2850    2.6294   -1.1276 H   0  0  0  0  0  0  0  0  0  0  0  0
    4.4249    1.0311   -0.5467 H   0  0  0  0  0  0  0  0  0  0  0  0
    4.0454   -1.1561    0.4055 H   0  0  0  0  0  0  0  0  0  0  0  0
    1.6971   -1.9509    0.8024 H   0  0  0  0  0  0  0  0  0  0  0  0
  1  2  2  0
  2  3  1  0
  3  4  2  0
  4  5  1  0
  5  6  2  0
  5  7  1  0
  7  8  1  0
  8  9  2  0
  9 10  1  0
 10 11  2  0
 11 12  1  0
 12 13  2  0
  6  1  1  0
 13  8  1  0
 13  4  1  0
  1 14  1  0
  2 15  1  0
  3 16  1  0
  6 17  1  0
  7 18  1  0
 10 19  1  0
 11 20  1  0
 12 21  1  0
M  END
