
     RDKit          3D

 29 32  0  0  0  0  0  0  0  0999 V2000
   -3.7700   -0.6058    0.0083 C   0  0  0  0  0  0  0  0  0  0  0  0
   -2.5438    0.2389    0.0511 C   0  0  0  0  0  0  0  0  0  0  0  0
   -2.6173    1.6176    0.1511 C   0  0  0  0  0  0  0  0  0  0  0  0
   -1.4733    2.4094    0.1914 C   0  0  0  0  0  0  0  0  0  0  0  0
   -0.2445    1.7876    0.1291 C   0  0  0  0  0  0  0  0  0  0  0  0
    0.9174    2.5247    0.1652 C   0  0  0  0  0  0  0  0  0  0  0  0
    2.1817    1.9365    0.1047 C   0  0  0  0  0  0  0  0  0  0  0  0
    2.2507    0.5623    0.0051 C   0  0  0  0  0  0  0  0  0  0  0  0
    3.4988   -0.0335   -0.0557 C   0  0  0  0  0  0  0  0  0  0  0  0
    3.6117   -1.4264   -0.1573 C   0  0  0  0  0  0  0  0  0  0  0  0
    2.4579   -2.1777   -0.1946 C   0  0  0  0  0  0  0  0  0  0  0  0
    1.2137   -1.5903   -0.1344 C   0  0  0  0  0  0  0  0  0  0  0  0
    0.0504   -2.2979   -0.1684 C   0  0  0  0  0  0  0  0  0  0  0  0
   -1.2144   -1.7311   -0.1095 C   0  0  0  0  0  0  0  0  0  0  0  0
   -1.3026   -0.3621   -0.0099 C   0  0  0  0  0  0  0  0  0  0  0  0
   -0.1491    0.4000    0.0281 C   0  0  0  0  0  0  0  0  0  0  0  0
    1.0897   -0.1982   -0.0327 C   0  0  0  0  0  0  0  0  0  0  0  0
   -3.9820   -0.9758   -1.0248 H   0  0  0  0  0  0  0  0  0  0  0  0
   -3.6780   -1.4346    0.7431 H   0  0  0  0  0  0  0  0  0  0  0  0
   -4.6587   -0.0120    0.3576 H   0  0  0  0  0  0  0  0  0  0  0  0
   -3.5995    2.0776    0.1983 H   0  0  0  0  0  0  0  0  0  0  0  0
   -1.5816    3.4826    0.2700 H   0  0  0  0  0  0  0  0  0  0  0  0
    0.8819    3.6014    0.2430 H   0  0  0  0  0  0  0  0  0  0  0  0
    3.0688    2.5528    0.1361 H   0  0  0  0  0  0  0  0  0  0  0  0
    4.4197    0.5300   -0.0285 H   0  0  0  0  0  0  0  0  0  0  0  0
    4.6019   -1.8592   -0.2027 H   0  0  0  0  0  0  0  0  0  0  0  0
    2.5557   -3.2462   -0.2727 H   0  0  0  0  0  0  0  0  0  0  0  0
    0.1181   -3.3901   -0.2478 H   0  0  0  0  0  0  0  0  0  0  0  0
   -2.1034   -2.3806   -0.1433 H   0  0  0  0  0  0  0  0  0  0  0  0
  1  2  1  0
  2  3  2  0
  3  4  1  0
  4  5  2  0
  5  6  1  0
  6  7  2  0
  7  8  1  0
  8  9  2  0
  9 10  1  0
 10 11  2  0
 11 12  1  0
 12 13  2  0
 13 14  1  0
 14 15  2  0
 15 16  1  0
 16 17  2  0
 15  2  1  0
 16  5  1  0
 17  8  1  0
 17 12  1  0
  1 18  1  0
  1 19  1  0
  1 20  1  0
  3 21  1  0
  4 22  1  0
  6 23  1  0
  7 24  1  0
  9 25  1  0
 10 26  1  0
 11 27  1  0
 13 28  1  0
 14 29  1  0
M  END
