
     RDKit          3D

 31 32  0  0  0  0  0  0  0  0999 V2000
    3.7433    0.7746    0.6215 C   0  0  0  0  0  0  0  0  0  0  0  0
    3.5418    0.0267   -0.6979 C   0  0  0  0  0  0  0  0  0  0  0  0
    2.4440   -0.8776   -0.5668 N   0  0  0  0  0  0  0  0  0  0  0  0
    1.1111   -0.4664   -0.2913 C   0  0  0  0  0  0  0  0  0  0  0  0
    0.7702    0.8622   -0.1501 C   0  0  0  0  0  0  0  0  0  0  0  0
   -0.5505    1.2421    0.1176 C   0  0  0  0  0  0  0  0  0  0  0  0
   -0.8819    2.5036    0.2532 O   0  0  0  0  0  0  0  0  0  0  0  0
   -2.1097    2.9053    0.5050 C   0  0  0  0  0  0  0  0  0  0  0  0
   -2.3819    4.1393    0.6280 O   0  0  0  0  0  0  0  0  0  0  0  0
   -3.1288    2.0099    0.6418 C   0  0  0  0  0  0  0  0  0  0  0  0
   -2.8488    0.6663    0.5110 C   0  0  0  0  0  0  0  0  0  0  0  0
   -3.8830   -0.3892    0.6412 C   0  0  0  0  0  0  0  0  0  0  0  0
   -5.1057    0.2397    0.9053 F   0  0  0  0  0  0  0  0  0  0  0  0
   -3.6460   -1.2298    1.7021 F   0  0  0  0  0  0  0  0  0  0  0  0
   -3.9809   -1.0633   -0.5602 F   0  0  0  0  0  0  0  0  0  0  0  0
   -1.5459    0.2967    0.2472 C   0  0  0  0  0  0  0  0  0  0  0  0
   -1.1603   -1.0263    0.0979 C   0  0  0  0  0  0  0  0  0  0  0  0
    0.1145   -1.4166   -0.1618 C   0  0  0  0  0  0  0  0  0  0  0  0
    0.4716   -2.8608   -0.3131 C   0  0  0  0  0  0  0  0  0  0  0  0
    2.9276    0.5552    1.3398 H   0  0  0  0  0  0  0  0  0  0  0  0
    4.6901    0.4076    1.1108 H   0  0  0  0  0  0  0  0  0  0  0  0
    3.7774    1.8629    0.4688 H   0  0  0  0  0  0  0  0  0  0  0  0
    3.3679    0.7705   -1.5161 H   0  0  0  0  0  0  0  0  0  0  0  0
    4.4703   -0.5011   -0.9729 H   0  0  0  0  0  0  0  0  0  0  0  0
    2.6480   -1.9128   -0.6838 H   0  0  0  0  0  0  0  0  0  0  0  0
    1.5057    1.6450   -0.2432 H   0  0  0  0  0  0  0  0  0  0  0  0
   -4.1462    2.3309    0.8497 H   0  0  0  0  0  0  0  0  0  0  0  0
   -1.9296   -1.7724    0.1970 H   0  0  0  0  0  0  0  0  0  0  0  0
   -0.4276   -3.5011   -0.3184 H   0  0  0  0  0  0  0  0  0  0  0  0
    1.1029   -3.1910    0.5464 H   0  0  0  0  0  0  0  0  0  0  0  0
    1.0404   -3.0303   -1.2544 H   0  0  0  0  0  0  0  0  0  0  0  0
  1  2  1  0
  2  3  1  0
  3  4  1  0
  4  5  2  0
  5  6  1  0
  6  7  1  0
  7  8  1  0
  8  9  2  0
  8 10  1  0
 10 11  2  0
 11 12  1  0
 12 13  1  0
 12 14  1  0
 12 15  1  0
 11 16  1  0
 16 17  1  0
 17 18  2  0
 18 19  1  0
 18  4  1  0
 16  6  2  0
  1 20  1  0
  1 21  1  0
  1 22  1  0
  2 23  1  0
  2 24  1  0
  3 25  1  0
  5 26  1  0
 10 27  1  0
 17 28  1  0
 19 29  1  0
 19 30  1  0
 19 31  1  0
M  END
