
     RDKit          3D

 39 41  0  0  0  0  0  0  0  0999 V2000
    5.2385   -0.2565   -0.6416 C   0  0  0  0  0  0  0  0  0  0  0  0
    3.9540   -0.6747   -0.2169 O   0  0  0  0  0  0  0  0  0  0  0  0
    2.8829    0.1485   -0.0630 C   0  0  0  0  0  0  0  0  0  0  0  0
    3.0721    1.3645   -0.3228 O   0  0  0  0  0  0  0  0  0  0  0  0
    1.5361   -0.2450    0.3746 C   0  0  0  0  0  0  0  0  0  0  0  0
    1.0780   -1.4213    0.7033 C   0  0  0  0  0  0  0  0  0  0  0  0
    1.8148   -2.7059    0.7272 C   0  0  0  0  0  0  0  0  0  0  0  0
    1.1434   -3.9175    1.1203 N   0  0  0  0  0  0  0  0  0  0  0  0
    3.0156   -2.8343    0.4238 O   0  0  0  0  0  0  0  0  0  0  0  0
   -0.3288   -1.3743    1.0328 N   0  0  0  0  0  0  0  0  0  0  0  0
   -1.2517   -2.3522    1.4026 N   0  0  0  0  0  0  0  0  0  0  0  0
   -2.5082   -2.2530    1.1528 C   0  0  0  0  0  0  0  0  0  0  0  0
   -2.9321   -1.0147    0.4586 C   0  0  0  0  0  0  0  0  0  0  0  0
   -4.2252   -0.9936   -0.0379 C   0  0  0  0  0  0  0  0  0  0  0  0
   -4.6035    0.0270   -0.8645 C   0  0  0  0  0  0  0  0  0  0  0  0
   -3.7384    1.0322   -1.2169 C   0  0  0  0  0  0  0  0  0  0  0  0
   -2.4305    1.0077   -0.7077 C   0  0  0  0  0  0  0  0  0  0  0  0
   -2.0310    0.0027    0.1215 C   0  0  0  0  0  0  0  0  0  0  0  0
   -0.7812   -0.0104    0.8720 C   0  0  0  0  0  0  0  0  0  0  0  0
    0.3994    0.7285    0.5680 C   0  0  0  0  0  0  0  0  0  0  0  0
    0.4653    1.8225   -0.3862 C   0  0  0  0  0  0  0  0  0  0  0  0
    0.8127    1.7392   -1.5978 O   0  0  0  0  0  0  0  0  0  0  0  0
    0.1205    3.1342    0.0193 O   0  0  0  0  0  0  0  0  0  0  0  0
    0.1732    4.2264   -0.8814 C   0  0  0  0  0  0  0  0  0  0  0  0
    5.1763    0.7062   -1.1866 H   0  0  0  0  0  0  0  0  0  0  0  0
    5.9350   -0.2214    0.2139 H   0  0  0  0  0  0  0  0  0  0  0  0
    5.5907   -1.0110   -1.3870 H   0  0  0  0  0  0  0  0  0  0  0  0
    0.6306   -3.9696    2.0224 H   0  0  0  0  0  0  0  0  0  0  0  0
    1.1678   -4.7456    0.5051 H   0  0  0  0  0  0  0  0  0  0  0  0
   -3.2381   -3.0051    1.4176 H   0  0  0  0  0  0  0  0  0  0  0  0
   -4.9235   -1.7984    0.2422 H   0  0  0  0  0  0  0  0  0  0  0  0
   -5.6225    0.0371   -1.2512 H   0  0  0  0  0  0  0  0  0  0  0  0
   -4.0878    1.8081   -1.8723 H   0  0  0  0  0  0  0  0  0  0  0  0
   -1.8262    1.8267   -1.0401 H   0  0  0  0  0  0  0  0  0  0  0  0
   -1.1703    0.3133    1.9551 H   0  0  0  0  0  0  0  0  0  0  0  0
    0.7426    1.2141    1.5807 H   0  0  0  0  0  0  0  0  0  0  0  0
   -0.7054    4.8960   -0.7958 H   0  0  0  0  0  0  0  0  0  0  0  0
    0.4060    3.9175   -1.9066 H   0  0  0  0  0  0  0  0  0  0  0  0
    1.0490    4.8519   -0.5374 H   0  0  0  0  0  0  0  0  0  0  0  0
  1  2  1  0
  2  3  1  0
  3  4  2  0
  3  5  1  0
  5  6  2  0
  6  7  1  0
  7  8  1  0
  7  9  2  0
  6 10  1  0
 10 11  1  0
 11 12  2  0
 12 13  1  0
 13 14  2  0
 14 15  1  0
 15 16  2  0
 16 17  1  0
 17 18  2  0
 18 19  1  0
 19 20  1  0
 20 21  1  0
 21 22  2  0
 21 23  1  0
 23 24  1  0
 20  5  1  0
 19 10  1  0
 18 13  1  0
  1 25  1  0
  1 26  1  0
  1 27  1  0
  8 28  1  0
  8 29  1  0
 12 30  1  0
 14 31  1  0
 15 32  1  0
 16 33  1  0
 17 34  1  0
 19 35  1  0
 20 36  1  0
 24 37  1  0
 24 38  1  0
 24 39  1  0
M  END
