
     RDKit          3D

 76 81  0  0  0  0  0  0  0  0999 V2000
   -8.7106   -1.2243   -2.0803 C   0  0  0  0  0  0  0  0  0  0  0  0
   -7.6697   -1.7412   -1.1446 C   0  0  0  0  0  0  0  0  0  0  0  0
   -7.5390   -1.2694    0.1420 C   0  0  0  0  0  0  0  0  0  0  0  0
   -6.5446   -1.7921    0.9729 C   0  0  0  0  0  0  0  0  0  0  0  0
   -5.6772   -2.7743    0.5513 C   0  0  0  0  0  0  0  0  0  0  0  0
   -4.4719   -3.3623    1.6576 S   0  0  0  0  0  6  0  0  0  0  0  0
   -4.1364   -4.7889    1.2484 O   0  0  0  0  0  0  0  0  0  0  0  0
   -4.9828   -3.4477    3.0688 O   0  0  0  0  0  0  0  0  0  0  0  0
   -3.0000   -2.4683    1.5643 N   0  0  0  0  0  0  0  0  0  0  0  0
   -2.9376   -1.2705    1.0746 C   0  0  0  0  0  0  0  0  0  0  0  0
   -1.6928   -0.5187    0.9974 C   0  0  0  0  0  0  0  0  0  0  0  0
   -1.8733    0.6938    0.4551 C   0  0  0  0  0  0  0  0  0  0  0  0
   -0.8614    1.7134    0.2194 C   0  0  0  0  0  0  0  0  0  0  0  0
   -1.0462    3.0337    0.0831 C   0  0  0  0  0  0  0  0  0  0  0  0
   -2.2625    3.8130    0.0208 C   0  0  0  0  0  0  0  0  0  0  0  0
   -2.1981    5.1577    0.4347 C   0  0  0  0  0  0  0  0  0  0  0  0
   -3.2477    6.0274    0.3520 C   0  0  0  0  0  0  0  0  0  0  0  0
   -4.4485    5.5894   -0.1617 C   0  0  0  0  0  0  0  0  0  0  0  0
   -4.5528    4.2987   -0.5740 C   0  0  0  0  0  0  0  0  0  0  0  0
   -3.4488    3.4155   -0.4790 C   0  0  0  0  0  0  0  0  0  0  0  0
    0.1686    3.5957    0.0120 O   0  0  0  0  0  0  0  0  0  0  0  0
    1.1225    2.7128    0.0911 C   0  0  0  0  0  0  0  0  0  0  0  0
    2.5595    3.0027    0.0451 C   0  0  0  0  0  0  0  0  0  0  0  0
    3.5607    2.2007    0.4623 C   0  0  0  0  0  0  0  0  0  0  0  0
    4.9081    2.5499    0.3110 C   0  0  0  0  0  0  0  0  0  0  0  0
    5.2731    3.7397   -0.2739 C   0  0  0  0  0  0  0  0  0  0  0  0
    4.2576    4.5617   -0.6988 C   0  0  0  0  0  0  0  0  0  0  0  0
    2.9301    4.2163   -0.5503 C   0  0  0  0  0  0  0  0  0  0  0  0
    0.5101    1.4962    0.2184 C   0  0  0  0  0  0  0  0  0  0  0  0
    1.1880    0.1800    0.2416 C   0  0  0  0  0  0  0  0  0  0  0  0
    0.7298   -0.9286    0.8107 C   0  0  0  0  0  0  0  0  0  0  0  0
    1.6178   -2.0667    0.6731 C   0  0  0  0  0  0  0  0  0  0  0  0
    2.7504   -1.9983    0.0511 N   0  0  0  0  0  0  0  0  0  0  0  0
    3.6912   -3.4421   -0.0247 S   0  0  0  0  0  6  0  0  0  0  0  0
    3.2822   -4.1864   -1.2607 O   0  0  0  0  0  0  0  0  0  0  0  0
    3.3675   -4.3146    1.1705 O   0  0  0  0  0  0  0  0  0  0  0  0
    5.3948   -3.1211   -0.0433 C   0  0  0  0  0  0  0  0  0  0  0  0
    6.1236   -2.9363   -1.1991 C   0  0  0  0  0  0  0  0  0  0  0  0
    7.4902   -2.6820   -1.1292 C   0  0  0  0  0  0  0  0  0  0  0  0
    8.1624   -2.6052    0.0718 C   0  0  0  0  0  0  0  0  0  0  0  0
    9.6330   -2.3297    0.0972 C   0  0  0  0  0  0  0  0  0  0  0  0
    7.4306   -2.7905    1.2251 C   0  0  0  0  0  0  0  0  0  0  0  0
    6.0628   -3.0449    1.1538 C   0  0  0  0  0  0  0  0  0  0  0  0
   -0.5182   -1.1972    1.5241 C   0  0  0  0  0  0  0  0  0  0  0  0
   -5.8152   -3.2396   -0.7353 C   0  0  0  0  0  0  0  0  0  0  0  0
   -6.8026   -2.7241   -1.5681 C   0  0  0  0  0  0  0  0  0  0  0  0
   -8.4474   -1.3844   -3.1264 H   0  0  0  0  0  0  0  0  0  0  0  0
   -9.6371   -1.8043   -1.8677 H   0  0  0  0  0  0  0  0  0  0  0  0
   -8.8832   -0.1292   -1.8657 H   0  0  0  0  0  0  0  0  0  0  0  0
   -8.2207   -0.5006    0.4664 H   0  0  0  0  0  0  0  0  0  0  0  0
   -6.4578   -1.4098    1.9775 H   0  0  0  0  0  0  0  0  0  0  0  0
   -3.8992   -0.8767    0.7260 H   0  0  0  0  0  0  0  0  0  0  0  0
   -2.8520    0.9796    0.1889 H   0  0  0  0  0  0  0  0  0  0  0  0
   -1.2700    5.5283    0.8412 H   0  0  0  0  0  0  0  0  0  0  0  0
   -3.2067    7.0597    0.6671 H   0  0  0  0  0  0  0  0  0  0  0  0
   -5.2947    6.2626   -0.2355 H   0  0  0  0  0  0  0  0  0  0  0  0
   -5.4905    3.9462   -0.9787 H   0  0  0  0  0  0  0  0  0  0  0  0
   -3.6367    2.4425   -0.8821 H   0  0  0  0  0  0  0  0  0  0  0  0
    3.3686    1.2782    0.9712 H   0  0  0  0  0  0  0  0  0  0  0  0
    5.6723    1.8758    0.6584 H   0  0  0  0  0  0  0  0  0  0  0  0
    6.3182    4.0142   -0.3931 H   0  0  0  0  0  0  0  0  0  0  0  0
    4.5310    5.5026   -1.1607 H   0  0  0  0  0  0  0  0  0  0  0  0
    2.1269    4.8745   -0.8907 H   0  0  0  0  0  0  0  0  0  0  0  0
    2.1200    0.1661   -0.3012 H   0  0  0  0  0  0  0  0  0  0  0  0
    1.3113   -3.0110    1.1135 H   0  0  0  0  0  0  0  0  0  0  0  0
    5.5876   -2.9984   -2.1342 H   0  0  0  0  0  0  0  0  0  0  0  0
    8.0573   -2.5373   -2.0472 H   0  0  0  0  0  0  0  0  0  0  0  0
    9.8645   -1.2795   -0.1733 H   0  0  0  0  0  0  0  0  0  0  0  0
   10.0600   -2.5231    1.0968 H   0  0  0  0  0  0  0  0  0  0  0  0
   10.1762   -2.9691   -0.6410 H   0  0  0  0  0  0  0  0  0  0  0  0
    7.9546   -2.7314    2.1791 H   0  0  0  0  0  0  0  0  0  0  0  0
    5.5550   -3.1797    2.1037 H   0  0  0  0  0  0  0  0  0  0  0  0
   -0.7151   -2.2974    1.5309 H   0  0  0  0  0  0  0  0  0  0  0  0
   -0.4370   -0.9260    2.6175 H   0  0  0  0  0  0  0  0  0  0  0  0
   -5.1293   -4.0108   -1.0569 H   0  0  0  0  0  0  0  0  0  0  0  0
   -6.9029   -3.0950   -2.5743 H   0  0  0  0  0  0  0  0  0  0  0  0
  1  2  1  0
  2  3  2  0
  3  4  1  0
  4  5  2  0
  5  6  1  0
  6  7  2  0
  6  8  2  0
  6  9  1  0
  9 10  2  0
 10 11  1  0
 11 12  2  0
 12 13  1  0
 13 14  2  0
 14 15  1  0
 15 16  2  0
 16 17  1  0
 17 18  2  0
 18 19  1  0
 19 20  2  0
 14 21  1  0
 21 22  1  0
 22 23  1  0
 23 24  2  0
 24 25  1  0
 25 26  2  0
 26 27  1  0
 27 28  2  0
 22 29  2  0
 29 30  1  0
 30 31  2  0
 31 32  1  0
 32 33  2  0
 33 34  1  0
 34 35  2  0
 34 36  2  0
 34 37  1  0
 37 38  2  0
 38 39  1  0
 39 40  2  0
 40 41  1  0
 40 42  1  0
 42 43  2  0
 31 44  1  0
  5 45  1  0
 45 46  2  0
 46  2  1  0
 44 11  1  0
 29 13  1  0
 43 37  1  0
 20 15  1  0
 28 23  1  0
  1 47  1  0
  1 48  1  0
  1 49  1  0
  3 50  1  0
  4 51  1  0
 10 52  1  0
 12 53  1  0
 16 54  1  0
 17 55  1  0
 18 56  1  0
 19 57  1  0
 20 58  1  0
 24 59  1  0
 25 60  1  0
 26 61  1  0
 27 62  1  0
 28 63  1  0
 30 64  1  0
 32 65  1  0
 38 66  1  0
 39 67  1  0
 41 68  1  0
 41 69  1  0
 41 70  1  0
 42 71  1  0
 43 72  1  0
 44 73  1  0
 44 74  1  0
 45 75  1  0
 46 76  1  0
M  END
