
     RDKit          3D

 44 48  0  0  0  0  0  0  0  0999 V2000
    7.2586    1.5678   -0.3690 O   0  0  0  0  0  0  0  0  0  0  0  0
    6.7566    0.4200   -0.2773 C   0  0  0  0  0  0  0  0  0  0  0  0
    7.5753   -0.6915   -0.2811 O   0  0  0  0  0  0  0  0  0  0  0  0
    5.2979    0.2904   -0.1676 C   0  0  0  0  0  0  0  0  0  0  0  0
    4.7192   -0.9418   -0.0663 C   0  0  0  0  0  0  0  0  0  0  0  0
    3.3270   -1.0955    0.0400 C   0  0  0  0  0  0  0  0  0  0  0  0
    2.5320   -0.0055    0.0408 C   0  0  0  0  0  0  0  0  0  0  0  0
    1.0652   -0.0477    0.0680 C   0  0  0  0  0  0  0  0  0  0  0  0
    0.3544    1.0194    0.4938 N   0  0  0  0  0  0  0  0  0  0  0  0
   -0.9851    0.7340    0.3775 C   0  0  0  0  0  0  0  0  0  0  0  0
   -2.0013    1.7137    0.7601 C   0  0  0  0  0  0  0  0  0  0  0  0
   -2.0747    2.0930    2.0826 C   0  0  0  0  0  0  0  0  0  0  0  0
   -2.9293    3.0940    2.5302 C   0  0  0  0  0  0  0  0  0  0  0  0
   -3.7408    3.7418    1.6300 C   0  0  0  0  0  0  0  0  0  0  0  0
   -3.6666    3.3622    0.3096 C   0  0  0  0  0  0  0  0  0  0  0  0
   -2.8202    2.3705   -0.1345 C   0  0  0  0  0  0  0  0  0  0  0  0
   -1.0391   -0.5332   -0.1258 C   0  0  0  0  0  0  0  0  0  0  0  0
   -2.1523   -1.3115   -0.4437 C   0  0  0  0  0  0  0  0  0  0  0  0
   -3.4303   -0.8660   -0.2161 C   0  0  0  0  0  0  0  0  0  0  0  0
   -4.4866   -1.7020   -0.5291 C   0  0  0  0  0  0  0  0  0  0  0  0
   -4.2844   -2.9521   -1.0541 C   0  0  0  0  0  0  0  0  0  0  0  0
   -3.0040   -3.3841   -1.2736 C   0  0  0  0  0  0  0  0  0  0  0  0
   -1.9300   -2.5688   -0.9701 C   0  0  0  0  0  0  0  0  0  0  0  0
   -0.6717   -3.0617   -1.1803 C   0  0  0  0  0  0  0  0  0  0  0  0
    0.3821   -2.2463   -0.8396 C   0  0  0  0  0  0  0  0  0  0  0  0
    0.2426   -1.0107   -0.3199 N   0  0  0  0  0  0  0  0  0  0  0  0
    3.1378    1.2436   -0.0621 C   0  0  0  0  0  0  0  0  0  0  0  0
    4.4942    1.4051   -0.1650 C   0  0  0  0  0  0  0  0  0  0  0  0
    8.5069   -0.5941   -0.6570 H   0  0  0  0  0  0  0  0  0  0  0  0
    5.3280   -1.8440   -0.0654 H   0  0  0  0  0  0  0  0  0  0  0  0
    2.9522   -2.1240    0.1677 H   0  0  0  0  0  0  0  0  0  0  0  0
   -1.4404    1.5904    2.8025 H   0  0  0  0  0  0  0  0  0  0  0  0
   -2.9713    3.3796    3.5866 H   0  0  0  0  0  0  0  0  0  0  0  0
   -4.3877    4.5091    2.0101 H   0  0  0  0  0  0  0  0  0  0  0  0
   -4.2915    3.8547   -0.4116 H   0  0  0  0  0  0  0  0  0  0  0  0
   -2.7885    2.0939   -1.2011 H   0  0  0  0  0  0  0  0  0  0  0  0
   -3.6657    0.0502    0.2121 H   0  0  0  0  0  0  0  0  0  0  0  0
   -5.5271   -1.4059   -0.3730 H   0  0  0  0  0  0  0  0  0  0  0  0
   -5.1252   -3.6022   -1.2974 H   0  0  0  0  0  0  0  0  0  0  0  0
   -2.8122   -4.3899   -1.6961 H   0  0  0  0  0  0  0  0  0  0  0  0
   -0.4933   -4.0621   -1.6017 H   0  0  0  0  0  0  0  0  0  0  0  0
    1.3823   -2.5997   -1.0294 H   0  0  0  0  0  0  0  0  0  0  0  0
    2.4756    2.1180   -0.0604 H   0  0  0  0  0  0  0  0  0  0  0  0
    4.9313    2.3887   -0.2432 H   0  0  0  0  0  0  0  0  0  0  0  0
  1  2  2  0
  2  3  1  0
  2  4  1  0
  4  5  2  0
  5  6  1  0
  6  7  2  0
  7  8  1  0
  8  9  2  0
  9 10  1  0
 10 11  1  0
 11 12  2  0
 12 13  1  0
 13 14  2  0
 14 15  1  0
 15 16  2  0
 10 17  2  0
 17 18  1  0
 18 19  2  0
 19 20  1  0
 20 21  2  0
 21 22  1  0
 22 23  2  0
 23 24  1  0
 24 25  2  0
 25 26  1  0
  7 27  1  0
 27 28  2  0
 28  4  1  0
 26  8  1  0
 16 11  1  0
 26 17  1  0
 23 18  1  0
  3 29  1  0
  5 30  1  0
  6 31  1  0
 12 32  1  0
 13 33  1  0
 14 34  1  0
 15 35  1  0
 16 36  1  0
 19 37  1  0
 20 38  1  0
 21 39  1  0
 22 40  1  0
 24 41  1  0
 25 42  1  0
 27 43  1  0
 28 44  1  0
M  END
