
     RDKit          3D

 42 44  0  0  0  0  0  0  0  0999 V2000
    5.1546    2.1061   -1.1666 C   0  0  0  0  0  0  0  0  0  0  0  0
    4.4349    2.5036    0.0977 C   0  0  0  0  0  0  0  0  0  0  0  0
    3.0763    2.0924    0.0978 O   0  0  0  0  0  0  0  0  0  0  0  0
    2.7235    0.7387   -0.0072 C   0  0  0  0  0  0  0  0  0  0  0  0
    3.6786   -0.0457   -0.0976 O   0  0  0  0  0  0  0  0  0  0  0  0
    1.3150    0.3564   -0.0034 C   0  0  0  0  0  0  0  0  0  0  0  0
    0.7706   -0.8849   -0.0941 C   0  0  0  0  0  0  0  0  0  0  0  0
    1.4514   -2.1624   -0.2191 C   0  0  0  0  0  0  0  0  0  0  0  0
    2.6829   -2.3161   -0.2634 O   0  0  0  0  0  0  0  0  0  0  0  0
    0.7233   -3.3687   -0.3022 O   0  0  0  0  0  0  0  0  0  0  0  0
    1.3284   -4.6188   -0.4229 C   0  0  0  0  0  0  0  0  0  0  0  0
   -0.6313   -0.7842   -0.0499 C   0  0  0  0  0  0  0  0  0  0  0  0
   -1.5304   -1.9134   -0.1223 C   0  0  0  0  0  0  0  0  0  0  0  0
   -1.9536   -2.3288   -1.2517 O   0  0  0  0  0  0  0  0  0  0  0  0
   -1.9762   -2.5967    0.9930 O   0  0  0  0  0  0  0  0  0  0  0  0
   -2.8572   -3.7047    0.9260 C   0  0  0  0  0  0  0  0  0  0  0  0
   -0.8944    0.5529    0.0698 C   0  0  0  0  0  0  0  0  0  0  0  0
   -2.1016    1.2477    0.1602 C   0  0  0  0  0  0  0  0  0  0  0  0
   -3.3048    0.5889    0.1384 C   0  0  0  0  0  0  0  0  0  0  0  0
   -4.4761    1.3470    0.2351 C   0  0  0  0  0  0  0  0  0  0  0  0
   -4.4296    2.7206    0.3497 C   0  0  0  0  0  0  0  0  0  0  0  0
   -3.2240    3.3862    0.3722 C   0  0  0  0  0  0  0  0  0  0  0  0
   -2.0569    2.6221    0.2751 C   0  0  0  0  0  0  0  0  0  0  0  0
   -0.8328    3.2650    0.2975 C   0  0  0  0  0  0  0  0  0  0  0  0
    0.2823    2.5262    0.2062 N   0  0  0  0  0  0  0  0  0  0  0  0
    0.2653    1.2218    0.0964 N   0  0  0  0  0  0  0  0  0  0  0  0
    6.1119    2.6996   -1.1774 H   0  0  0  0  0  0  0  0  0  0  0  0
    5.4200    1.0503   -1.2064 H   0  0  0  0  0  0  0  0  0  0  0  0
    4.5955    2.4692   -2.0648 H   0  0  0  0  0  0  0  0  0  0  0  0
    4.9967    2.1569    0.9642 H   0  0  0  0  0  0  0  0  0  0  0  0
    4.4117    3.6124    0.1184 H   0  0  0  0  0  0  0  0  0  0  0  0
    2.2722   -4.6268   -0.9678 H   0  0  0  0  0  0  0  0  0  0  0  0
    1.5125   -5.0983    0.5752 H   0  0  0  0  0  0  0  0  0  0  0  0
    0.6058   -5.2879   -0.9715 H   0  0  0  0  0  0  0  0  0  0  0  0
   -2.4127   -4.6147    1.3808 H   0  0  0  0  0  0  0  0  0  0  0  0
   -3.7403   -3.4426    1.5652 H   0  0  0  0  0  0  0  0  0  0  0  0
   -3.2396   -3.9047   -0.0744 H   0  0  0  0  0  0  0  0  0  0  0  0
   -3.4044   -0.4693    0.0545 H   0  0  0  0  0  0  0  0  0  0  0  0
   -5.4134    0.8071    0.2158 H   0  0  0  0  0  0  0  0  0  0  0  0
   -5.3536    3.2851    0.4232 H   0  0  0  0  0  0  0  0  0  0  0  0
   -3.1650    4.4675    0.4619 H   0  0  0  0  0  0  0  0  0  0  0  0
   -0.8153    4.3447    0.3881 H   0  0  0  0  0  0  0  0  0  0  0  0
  1  2  1  0
  2  3  1  0
  3  4  1  0
  4  5  2  0
  4  6  1  0
  6  7  2  0
  7  8  1  0
  8  9  2  0
  8 10  1  0
 10 11  1  0
  7 12  1  0
 12 13  1  0
 13 14  2  0
 13 15  1  0
 15 16  1  0
 12 17  2  0
 17 18  1  0
 18 19  2  0
 19 20  1  0
 20 21  2  0
 21 22  1  0
 22 23  2  0
 23 24  1  0
 24 25  2  0
 25 26  1  0
 26  6  1  0
 26 17  1  0
 23 18  1  0
  1 27  1  0
  1 28  1  0
  1 29  1  0
  2 30  1  0
  2 31  1  0
 11 32  1  0
 11 33  1  0
 11 34  1  0
 16 35  1  0
 16 36  1  0
 16 37  1  0
 19 38  1  0
 20 39  1  0
 21 40  1  0
 22 41  1  0
 24 42  1  0
M  END
