
     RDKit          3D

 68 72  0  0  0  0  0  0  0  0999 V2000
   -1.5072    1.3871    2.0488 N   0  0  0  0  0  0  0  0  0  0  0  0
   -1.0695    0.7551    1.0505 C   0  0  0  0  0  0  0  0  0  0  0  0
   -0.5581    0.0455   -0.0566 C   0  0  0  0  0  0  0  0  0  0  0  0
    0.8824    0.0910   -0.0451 N   0  0  0  0  0  0  0  0  0  0  0  0
    1.5029   -0.7377   -0.9915 C   0  0  0  0  0  0  0  0  0  0  0  0
    2.9071   -0.4835   -1.1344 N   0  0  0  0  0  0  0  0  0  0  0  0
    3.1571    0.9991   -1.2929 C   0  0  0  0  0  0  0  0  0  0  0  0
    3.9096    1.5938   -0.2393 C   0  0  0  0  0  0  0  0  0  0  0  0
    3.4882    1.9611    0.9658 C   0  0  0  0  0  0  0  0  0  0  0  0
    4.1547    2.5363    2.0055 C   0  0  0  0  0  0  0  0  0  0  0  0
    5.5506    2.7690    1.7111 C   0  0  0  0  0  0  0  0  0  0  0  0
    6.0366    2.4344    0.5705 C   0  0  0  0  0  0  0  0  0  0  0  0
    5.3277    1.8409   -0.4962 C   0  0  0  0  0  0  0  0  0  0  0  0
    4.0368   -1.2569   -1.2016 C   0  0  0  0  0  0  0  0  0  0  0  0
    4.5603   -2.0100   -0.0669 C   0  0  0  0  0  0  0  0  0  0  0  0
    5.4895   -1.4931    0.8454 C   0  0  0  0  0  0  0  0  0  0  0  0
    6.0571   -2.1669    1.8810 C   0  0  0  0  0  0  0  0  0  0  0  0
    5.6935   -3.5004    2.0731 C   0  0  0  0  0  0  0  0  0  0  0  0
    4.7963   -4.0203    1.2035 C   0  0  0  0  0  0  0  0  0  0  0  0
    4.2071   -3.3662    0.1522 C   0  0  0  0  0  0  0  0  0  0  0  0
    0.7742   -1.4761   -1.7826 C   0  0  0  0  0  0  0  0  0  0  0  0
    1.5444   -2.5508   -2.5367 C   0  0  0  0  0  0  0  0  0  0  0  0
    2.1711   -3.4398   -3.1523 N   0  0  0  0  0  0  0  0  0  0  0  0
   -0.5511   -1.5717   -1.8700 N   0  0  0  0  0  0  0  0  0  0  0  0
   -1.2032   -0.6948   -0.8738 C   0  0  0  0  0  0  0  0  0  0  0  0
   -2.6392   -0.5630   -1.0455 N   0  0  0  0  0  0  0  0  0  0  0  0
   -3.1381    0.6900   -1.4261 C   0  0  0  0  0  0  0  0  0  0  0  0
   -3.6365    1.7056   -0.4874 C   0  0  0  0  0  0  0  0  0  0  0  0
   -4.1970    1.4970    0.6737 C   0  0  0  0  0  0  0  0  0  0  0  0
   -4.6418    2.3774    1.6273 C   0  0  0  0  0  0  0  0  0  0  0  0
   -4.4224    3.7231    1.2041 C   0  0  0  0  0  0  0  0  0  0  0  0
   -3.8895    4.0381    0.0997 C   0  0  0  0  0  0  0  0  0  0  0  0
   -3.4076    3.1237   -0.9412 C   0  0  0  0  0  0  0  0  0  0  0  0
   -3.4369   -1.7365   -0.8627 C   0  0  0  0  0  0  0  0  0  0  0  0
   -4.9283   -1.4720   -1.0044 C   0  0  0  0  0  0  0  0  0  0  0  0
   -5.4784   -0.9621   -2.0194 C   0  0  0  0  0  0  0  0  0  0  0  0
   -6.8890   -0.5963   -2.1227 C   0  0  0  0  0  0  0  0  0  0  0  0
   -7.5632   -0.8958   -0.9284 C   0  0  0  0  0  0  0  0  0  0  0  0
   -7.0124   -1.4303    0.1315 C   0  0  0  0  0  0  0  0  0  0  0  0
   -5.6056   -1.7943    0.2148 C   0  0  0  0  0  0  0  0  0  0  0  0
    3.6576    1.1205   -2.3228 H   0  0  0  0  0  0  0  0  0  0  0  0
    2.1436    1.4250   -1.4839 H   0  0  0  0  0  0  0  0  0  0  0  0
    2.4016    1.8067    1.2704 H   0  0  0  0  0  0  0  0  0  0  0  0
    3.8172    2.8458    2.9478 H   0  0  0  0  0  0  0  0  0  0  0  0
    6.1246    3.2594    2.5346 H   0  0  0  0  0  0  0  0  0  0  0  0
    7.1146    2.6153    0.3276 H   0  0  0  0  0  0  0  0  0  0  0  0
    5.7463    1.6219   -1.3841 H   0  0  0  0  0  0  0  0  0  0  0  0
    4.1403   -1.8521   -2.1730 H   0  0  0  0  0  0  0  0  0  0  0  0
    4.9727   -0.5391   -1.4452 H   0  0  0  0  0  0  0  0  0  0  0  0
    5.7236   -0.4431    0.7009 H   0  0  0  0  0  0  0  0  0  0  0  0
    6.7778   -1.7234    2.5862 H   0  0  0  0  0  0  0  0  0  0  0  0
    6.1598   -4.0142    2.8908 H   0  0  0  0  0  0  0  0  0  0  0  0
    4.5113   -5.0853    1.3742 H   0  0  0  0  0  0  0  0  0  0  0  0
    3.4951   -3.7465   -0.5440 H   0  0  0  0  0  0  0  0  0  0  0  0
   -3.8146    0.7264   -2.3204 H   0  0  0  0  0  0  0  0  0  0  0  0
   -2.2312    1.2798   -1.9604 H   0  0  0  0  0  0  0  0  0  0  0  0
   -4.3844    0.4346    1.0548 H   0  0  0  0  0  0  0  0  0  0  0  0
   -5.0889    2.1608    2.5667 H   0  0  0  0  0  0  0  0  0  0  0  0
   -4.7874    4.4732    1.9858 H   0  0  0  0  0  0  0  0  0  0  0  0
   -3.6737    5.0757   -0.1931 H   0  0  0  0  0  0  0  0  0  0  0  0
   -3.0279    3.3686   -1.8351 H   0  0  0  0  0  0  0  0  0  0  0  0
   -3.2148   -2.5029   -1.5894 H   0  0  0  0  0  0  0  0  0  0  0  0
   -3.2131   -2.2089    0.1363 H   0  0  0  0  0  0  0  0  0  0  0  0
   -4.9935   -0.8081   -3.0317 H   0  0  0  0  0  0  0  0  0  0  0  0
   -7.3316   -0.1766   -2.9377 H   0  0  0  0  0  0  0  0  0  0  0  0
   -8.6867   -0.6288   -0.9370 H   0  0  0  0  0  0  0  0  0  0  0  0
   -7.5706   -1.6339    1.0364 H   0  0  0  0  0  0  0  0  0  0  0  0
   -5.2400   -2.2003    1.0458 H   0  0  0  0  0  0  0  0  0  0  0  0
  1  2  3  0
  2  3  1  0
  3  4  2  0
  4  5  1  0
  5  6  1  0
  6  7  1  0
  7  8  1  0
  8  9  2  0
  9 10  1  0
 10 11  2  0
 11 12  1  0
 12 13  2  0
  6 14  1  0
 14 15  1  0
 15 16  2  0
 16 17  1  0
 17 18  2  0
 18 19  1  0
 19 20  2  0
  5 21  2  0
 21 22  1  0
 22 23  3  0
 21 24  1  0
 24 25  2  0
 25 26  1  0
 26 27  1  0
 27 28  1  0
 28 29  2  0
 29 30  1  0
 30 31  2  0
 31 32  1  0
 32 33  2  0
 26 34  1  0
 34 35  1  0
 35 36  2  0
 36 37  1  0
 37 38  2  0
 38 39  1  0
 39 40  2  0
 25  3  1  0
 33 28  1  0
 40 35  1  0
 13  8  1  0
 20 15  1  0
  7 41  1  0
  7 42  1  0
  9 43  1  0
 10 44  1  0
 11 45  1  0
 12 46  1  0
 13 47  1  0
 14 48  1  0
 14 49  1  0
 16 50  1  0
 17 51  1  0
 18 52  1  0
 19 53  1  0
 20 54  1  0
 27 55  1  0
 27 56  1  0
 29 57  1  0
 30 58  1  0
 31 59  1  0
 32 60  1  0
 33 61  1  0
 34 62  1  0
 34 63  1  0
 36 64  1  0
 37 65  1  0
 38 66  1  0
 39 67  1  0
 40 68  1  0
M  END
