
     RDKit          3D

 48 52  0  0  0  0  0  0  0  0999 V2000
    5.2024   -0.6342   -1.1071 C   0  0  0  0  0  0  0  0  0  0  0  0
    4.2847   -1.6762   -1.6971 C   0  0  0  0  0  0  0  0  0  0  0  0
    2.9270   -1.3580   -1.4640 O   0  0  0  0  0  0  0  0  0  0  0  0
    2.4432   -1.2323   -0.1769 C   0  0  0  0  0  0  0  0  0  0  0  0
    3.2158   -1.4018    0.8098 O   0  0  0  0  0  0  0  0  0  0  0  0
    1.0418   -0.9046   -0.0021 C   0  0  0  0  0  0  0  0  0  0  0  0
    0.1353   -1.9273    0.0891 C   0  0  0  0  0  0  0  0  0  0  0  0
   -1.1659   -1.5889    0.2519 C   0  0  0  0  0  0  0  0  0  0  0  0
   -1.9679   -2.6998    0.3289 C   0  0  0  0  0  0  0  0  0  0  0  0
   -3.3163   -2.4388    0.4961 C   0  0  0  0  0  0  0  0  0  0  0  0
   -3.8090   -1.1658    0.5781 C   0  0  0  0  0  0  0  0  0  0  0  0
   -2.9644   -0.0335    0.4963 C   0  0  0  0  0  0  0  0  0  0  0  0
   -3.4981    1.2045    0.5826 O   0  0  0  0  0  0  0  0  0  0  0  0
   -4.8628    1.5089    0.7526 C   0  0  0  0  0  0  0  0  0  0  0  0
   -1.6306   -0.2722    0.3313 C   0  0  0  0  0  0  0  0  0  0  0  0
   -0.7333    0.7731    0.2417 C   0  0  0  0  0  0  0  0  0  0  0  0
   -1.1331    2.0841    0.3131 C   0  0  0  0  0  0  0  0  0  0  0  0
   -0.1774    3.0726    0.2154 C   0  0  0  0  0  0  0  0  0  0  0  0
   -0.4868    4.4120    0.2765 C   0  0  0  0  0  0  0  0  0  0  0  0
    0.4753    5.3930    0.1779 C   0  0  0  0  0  0  0  0  0  0  0  0
    1.7945    5.0561    0.0129 C   0  0  0  0  0  0  0  0  0  0  0  0
    2.1321    3.7326   -0.0513 C   0  0  0  0  0  0  0  0  0  0  0  0
    1.1657    2.7535    0.0478 C   0  0  0  0  0  0  0  0  0  0  0  0
    1.5402    1.4346   -0.0207 C   0  0  0  0  0  0  0  0  0  0  0  0
    0.6128    0.4256    0.0732 C   0  0  0  0  0  0  0  0  0  0  0  0
   -1.1691   -3.8722    0.2119 N   0  0  0  0  0  0  0  0  0  0  0  0
   -1.6192   -5.2377    0.2419 C   0  0  0  0  0  0  0  0  0  0  0  0
    0.1655   -3.4064    0.0592 C   0  0  0  0  0  0  0  0  0  0  0  0
    1.2205   -4.0654   -0.0796 O   0  0  0  0  0  0  0  0  0  0  0  0
    5.4916   -0.9758   -0.0918 H   0  0  0  0  0  0  0  0  0  0  0  0
    4.6899    0.3300   -1.0274 H   0  0  0  0  0  0  0  0  0  0  0  0
    6.1093   -0.5871   -1.7438 H   0  0  0  0  0  0  0  0  0  0  0  0
    4.4652   -2.6702   -1.2527 H   0  0  0  0  0  0  0  0  0  0  0  0
    4.4392   -1.7336   -2.7925 H   0  0  0  0  0  0  0  0  0  0  0  0
   -4.0186   -3.2586    0.5663 H   0  0  0  0  0  0  0  0  0  0  0  0
   -4.8812   -0.9815    0.7105 H   0  0  0  0  0  0  0  0  0  0  0  0
   -5.3608    0.8414    1.4871 H   0  0  0  0  0  0  0  0  0  0  0  0
   -5.3727    1.3746   -0.2221 H   0  0  0  0  0  0  0  0  0  0  0  0
   -5.0197    2.5647    1.0537 H   0  0  0  0  0  0  0  0  0  0  0  0
   -2.1304    2.4017    0.4390 H   0  0  0  0  0  0  0  0  0  0  0  0
   -1.5191    4.7046    0.4061 H   0  0  0  0  0  0  0  0  0  0  0  0
    0.2135    6.4386    0.2280 H   0  0  0  0  0  0  0  0  0  0  0  0
    2.5399    5.8441   -0.0630 H   0  0  0  0  0  0  0  0  0  0  0  0
    3.1655    3.4604   -0.1807 H   0  0  0  0  0  0  0  0  0  0  0  0
    2.5863    1.1328   -0.1522 H   0  0  0  0  0  0  0  0  0  0  0  0
   -2.4676   -5.3714    0.9358 H   0  0  0  0  0  0  0  0  0  0  0  0
   -0.7632   -5.9013    0.4729 H   0  0  0  0  0  0  0  0  0  0  0  0
   -1.9898   -5.5491   -0.7626 H   0  0  0  0  0  0  0  0  0  0  0  0
  1  2  1  0
  2  3  1  0
  3  4  1  0
  4  5  2  0
  4  6  1  0
  6  7  2  0
  7  8  1  0
  8  9  2  0
  9 10  1  0
 10 11  2  0
 11 12  1  0
 12 13  1  0
 13 14  1  0
 12 15  2  0
 15 16  1  0
 16 17  2  0
 17 18  1  0
 18 19  2  0
 19 20  1  0
 20 21  2  0
 21 22  1  0
 22 23  2  0
 23 24  1  0
 24 25  2  0
  9 26  1  0
 26 27  1  0
 26 28  1  0
 28 29  2  0
 25  6  1  0
 28  7  1  0
 15  8  1  0
 25 16  1  0
 23 18  1  0
  1 30  1  0
  1 31  1  0
  1 32  1  0
  2 33  1  0
  2 34  1  0
 10 35  1  0
 11 36  1  0
 14 37  1  0
 14 38  1  0
 14 39  1  0
 17 40  1  0
 19 41  1  0
 20 42  1  0
 21 43  1  0
 22 44  1  0
 24 45  1  0
 27 46  1  0
 27 47  1  0
 27 48  1  0
M  END
