
     RDKit          3D

 64 65  0  0  0  0  0  0  0  0999 V2000
   -5.1456   -5.7104    0.5040 C   0  0  0  0  0  0  0  0  0  0  0  0
   -5.4902   -4.3635   -0.0911 C   0  0  0  0  0  0  0  0  0  0  0  0
   -4.6168   -3.2448    0.4507 C   0  0  0  0  0  0  0  0  0  0  0  0
   -3.2169   -3.5968    0.1070 C   0  0  0  0  0  0  0  0  0  0  0  0
   -2.1798   -2.5263    0.4984 C   0  0  0  0  0  0  0  0  0  0  0  0
   -2.5434   -1.2618   -0.1601 C   0  0  0  0  0  0  0  0  0  0  0  0
   -1.6722   -0.1335   -0.1264 N   0  0  0  0  0  0  0  0  0  0  0  0
   -2.3064    1.1538   -0.4742 C   0  0  0  0  0  0  0  0  0  0  0  0
   -3.2246    1.6584    0.5880 C   0  0  0  0  0  0  0  0  0  0  0  0
   -4.0535    2.8317    0.2232 C   0  0  0  0  0  0  0  0  0  0  0  0
   -3.4538    4.0662   -0.2592 C   0  0  0  0  0  0  0  0  0  0  0  0
   -2.5230    4.8328    0.6112 C   0  0  0  0  0  0  0  0  0  0  0  0
   -2.1161    6.0753   -0.2238 C   0  0  0  0  0  0  0  0  0  0  0  0
   -0.2540   -0.1203    0.0641 C   0  0  0  0  0  0  0  0  0  0  0  0
    0.3789   -1.0862   -0.7972 C   0  0  0  0  0  0  0  0  0  0  0  0
    1.7494   -1.0140   -0.7392 C   0  0  0  0  0  0  0  0  0  0  0  0
    2.4888   -0.1700    0.0089 C   0  0  0  0  0  0  0  0  0  0  0  0
    3.9305   -0.0882   -0.2195 C   0  0  0  0  0  0  0  0  0  0  0  0
    5.1682   -0.0217   -0.3936 C   0  0  0  0  0  0  0  0  0  0  0  0
    6.5814    0.0631   -0.6157 C   0  0  0  0  0  0  0  0  0  0  0  0
    7.3014   -1.1297   -0.6420 C   0  0  0  0  0  0  0  0  0  0  0  0
    8.6737   -1.0696   -0.7706 C   0  0  0  0  0  0  0  0  0  0  0  0
    9.3696    0.0857   -0.8762 C   0  0  0  0  0  0  0  0  0  0  0  0
   10.7787    0.1698   -0.9630 N   0  0  0  0  0  4  0  0  0  0  0  0
   11.4780   -0.8486   -0.9585 O   0  0  0  0  0  0  0  0  0  0  0  0
   11.4083    1.4031   -1.0427 O   0  0  0  0  0  1  0  0  0  0  0  0
    8.6203    1.2948   -0.8501 C   0  0  0  0  0  0  0  0  0  0  0  0
    7.2577    1.2447   -0.7196 C   0  0  0  0  0  0  0  0  0  0  0  0
    1.8750    0.7594    0.8523 C   0  0  0  0  0  0  0  0  0  0  0  0
    0.4730    0.7124    0.8147 C   0  0  0  0  0  0  0  0  0  0  0  0
   -4.7714   -5.6570    1.5337 H   0  0  0  0  0  0  0  0  0  0  0  0
   -6.0543   -6.3815    0.4888 H   0  0  0  0  0  0  0  0  0  0  0  0
   -4.3893   -6.2572   -0.0959 H   0  0  0  0  0  0  0  0  0  0  0  0
   -6.5533   -4.1023    0.0600 H   0  0  0  0  0  0  0  0  0  0  0  0
   -5.3605   -4.4592   -1.1987 H   0  0  0  0  0  0  0  0  0  0  0  0
   -4.9346   -2.2922   -0.0673 H   0  0  0  0  0  0  0  0  0  0  0  0
   -4.8184   -3.0987    1.5122 H   0  0  0  0  0  0  0  0  0  0  0  0
   -2.9607   -4.5331    0.6069 H   0  0  0  0  0  0  0  0  0  0  0  0
   -3.1392   -3.7419   -0.9801 H   0  0  0  0  0  0  0  0  0  0  0  0
   -1.1947   -2.8860    0.2229 H   0  0  0  0  0  0  0  0  0  0  0  0
   -2.2167   -2.4363    1.6361 H   0  0  0  0  0  0  0  0  0  0  0  0
   -3.5097   -0.9277    0.3284 H   0  0  0  0  0  0  0  0  0  0  0  0
   -2.8095   -1.4987   -1.2489 H   0  0  0  0  0  0  0  0  0  0  0  0
   -2.8904    1.0333   -1.4148 H   0  0  0  0  0  0  0  0  0  0  0  0
   -1.5451    1.9255   -0.6695 H   0  0  0  0  0  0  0  0  0  0  0  0
   -2.5856    1.8755    1.5196 H   0  0  0  0  0  0  0  0  0  0  0  0
   -3.9173    0.8617    0.9278 H   0  0  0  0  0  0  0  0  0  0  0  0
   -4.6738    3.0704    1.1530 H   0  0  0  0  0  0  0  0  0  0  0  0
   -4.8053    2.4786   -0.5512 H   0  0  0  0  0  0  0  0  0  0  0  0
   -4.2981    4.7833   -0.5615 H   0  0  0  0  0  0  0  0  0  0  0  0
   -2.9348    3.8910   -1.2595 H   0  0  0  0  0  0  0  0  0  0  0  0
   -1.6147    4.2500    0.8299 H   0  0  0  0  0  0  0  0  0  0  0  0
   -2.9761    5.2275    1.5401 H   0  0  0  0  0  0  0  0  0  0  0  0
   -2.8618    6.2451   -1.0328 H   0  0  0  0  0  0  0  0  0  0  0  0
   -1.1308    5.9540   -0.6926 H   0  0  0  0  0  0  0  0  0  0  0  0
   -2.1650    7.0029    0.4124 H   0  0  0  0  0  0  0  0  0  0  0  0
   -0.1473   -1.7296   -1.4211 H   0  0  0  0  0  0  0  0  0  0  0  0
    2.2732   -1.7535   -1.4198 H   0  0  0  0  0  0  0  0  0  0  0  0
    6.7563   -2.0363   -0.5553 H   0  0  0  0  0  0  0  0  0  0  0  0
    9.2435   -2.0196   -0.7695 H   0  0  0  0  0  0  0  0  0  0  0  0
    9.1673    2.2169   -0.9300 H   0  0  0  0  0  0  0  0  0  0  0  0
    6.6919    2.1892   -0.7122 H   0  0  0  0  0  0  0  0  0  0  0  0
    2.4470    1.4145    1.4608 H   0  0  0  0  0  0  0  0  0  0  0  0
   -0.0575    1.4260    1.4484 H   0  0  0  0  0  0  0  0  0  0  0  0
  1  2  1  0
  2  3  1  0
  3  4  1  0
  4  5  1  0
  5  6  1  0
  6  7  1  0
  7  8  1  0
  8  9  1  0
  9 10  1  0
 10 11  1  0
 11 12  1  0
 12 13  1  0
  7 14  1  0
 14 15  2  0
 15 16  1  0
 16 17  2  0
 17 18  1  0
 18 19  3  0
 19 20  1  0
 20 21  2  0
 21 22  1  0
 22 23  2  0
 23 24  1  0
 24 25  2  0
 24 26  1  0
 23 27  1  0
 27 28  2  0
 17 29  1  0
 29 30  2  0
 30 14  1  0
 28 20  1  0
  1 31  1  0
  1 32  1  0
  1 33  1  0
  2 34  1  0
  2 35  1  0
  3 36  1  0
  3 37  1  0
  4 38  1  0
  4 39  1  0
  5 40  1  0
  5 41  1  0
  6 42  1  0
  6 43  1  0
  8 44  1  0
  8 45  1  0
  9 46  1  0
  9 47  1  0
 10 48  1  0
 10 49  1  0
 11 50  1  0
 11 51  1  0
 12 52  1  0
 12 53  1  0
 13 54  1  0
 13 55  1  0
 13 56  1  0
 15 57  1  0
 16 58  1  0
 21 59  1  0
 22 60  1  0
 27 61  1  0
 28 62  1  0
 29 63  1  0
 30 64  1  0
M  CHG  2  24   1  26  -1
M  END
