
     RDKit          3D

 76 85  0  0  0  0  0  0  0  0999 V2000
    0.1049    6.9049   -0.2978 C   0  0  0  0  0  0  0  0  0  0  0  0
    0.0668    5.4207   -0.3216 C   0  0  0  0  0  0  0  0  0  0  0  0
    0.7313    4.6938    0.6546 C   0  0  0  0  0  0  0  0  0  0  0  0
    0.7071    3.2954    0.6481 C   0  0  0  0  0  0  0  0  0  0  0  0
    1.3991    2.6259    1.7481 C   0  0  0  0  0  0  0  0  0  0  0  0
    0.0203    2.6385   -0.3348 C   0  0  0  0  0  0  0  0  0  0  0  0
    0.0161    1.1648   -0.4109 C   0  0  0  0  0  0  0  0  0  0  0  0
   -1.1535    0.5743   -0.2328 C   0  0  0  0  0  0  0  0  0  0  0  0
   -2.4743    1.1203    0.0530 C   0  0  0  0  0  0  0  0  0  0  0  0
   -3.2334    0.0590    0.2224 C   0  0  0  0  0  0  0  0  0  0  0  0
   -2.5141   -1.1085    0.0674 C   0  0  0  0  0  0  0  0  0  0  0  0
   -3.1835   -2.3240    0.2333 C   0  0  0  0  0  0  0  0  0  0  0  0
   -2.4984   -3.5097    0.1528 C   0  0  0  0  0  0  0  0  0  0  0  0
   -3.2073   -4.6931    0.3670 C   0  0  0  0  0  0  0  0  0  0  0  0
   -4.5356   -4.6927    0.6513 C   0  0  0  0  0  0  0  0  0  0  0  0
   -5.2077   -3.4905    0.7327 C   0  0  0  0  0  0  0  0  0  0  0  0
   -4.5526   -2.3004    0.5289 C   0  0  0  0  0  0  0  0  0  0  0  0
   -5.2703   -1.1255    0.6731 C   0  0  0  0  0  0  0  0  0  0  0  0
   -6.6127   -1.1333    0.9614 C   0  0  0  0  0  0  0  0  0  0  0  0
   -7.2843    0.0894    1.0980 C   0  0  0  0  0  0  0  0  0  0  0  0
   -6.6328    1.2851    0.9506 C   0  0  0  0  0  0  0  0  0  0  0  0
   -5.2879    1.2407    0.6619 C   0  0  0  0  0  0  0  0  0  0  0  0
   -4.5757    0.0488    0.5164 C   0  0  0  0  0  0  0  0  0  0  0  0
   -1.2740   -0.8792   -0.2176 N   0  0  0  0  0  4  0  0  0  0  0  0
   -0.0468   -1.5891   -0.7402 B   0  0  0  0  0  4  0  0  0  0  0  0
   -0.1095   -2.8711   -1.2909 F   0  0  0  0  0  0  0  0  0  0  0  0
   -0.1622   -0.9046   -2.2657 F   0  0  0  0  0  0  0  0  0  0  0  0
    1.2619   -0.9382   -0.4097 N   0  0  0  0  0  0  0  0  0  0  0  0
    1.2684    0.4261   -0.5015 C   0  0  0  0  0  0  0  0  0  0  0  0
    2.5738    0.8913   -0.4328 C   0  0  0  0  0  0  0  0  0  0  0  0
    3.3780   -0.2264   -0.2793 C   0  0  0  0  0  0  0  0  0  0  0  0
    4.7255   -0.3836   -0.1561 C   0  0  0  0  0  0  0  0  0  0  0  0
    5.4850    0.7832   -0.1936 C   0  0  0  0  0  0  0  0  0  0  0  0
    6.8500    0.6580   -0.0770 C   0  0  0  0  0  0  0  0  0  0  0  0
    7.4250   -0.5861    0.0707 C   0  0  0  0  0  0  0  0  0  0  0  0
    6.6568   -1.7579    0.1080 C   0  0  0  0  0  0  0  0  0  0  0  0
    5.2947   -1.6181   -0.0094 C   0  0  0  0  0  0  0  0  0  0  0  0
    4.4740   -2.7414    0.0224 C   0  0  0  0  0  0  0  0  0  0  0  0
    5.0287   -3.9736    0.2288 C   0  0  0  0  0  0  0  0  0  0  0  0
    4.2174   -5.1071    0.3222 C   0  0  0  0  0  0  0  0  0  0  0  0
    2.8546   -4.9716    0.2063 C   0  0  0  0  0  0  0  0  0  0  0  0
    2.2842   -3.7325   -0.0014 C   0  0  0  0  0  0  0  0  0  0  0  0
    3.0933   -2.6149   -0.0975 C   0  0  0  0  0  0  0  0  0  0  0  0
    2.5475   -1.3570   -0.2584 C   0  0  0  0  0  0  0  0  0  0  0  0
   -0.6496    3.3396   -1.3170 C   0  0  0  0  0  0  0  0  0  0  0  0
   -1.3921    2.6506   -2.3873 C   0  0  0  0  0  0  0  0  0  0  0  0
   -0.6222    4.7232   -1.3040 C   0  0  0  0  0  0  0  0  0  0  0  0
   -0.4159    7.2648    0.6089 H   0  0  0  0  0  0  0  0  0  0  0  0
    1.1720    7.2749   -0.3106 H   0  0  0  0  0  0  0  0  0  0  0  0
   -0.3587    7.2864   -1.2230 H   0  0  0  0  0  0  0  0  0  0  0  0
    1.2697    5.2477    1.4221 H   0  0  0  0  0  0  0  0  0  0  0  0
    2.4806    2.8065    1.6994 H   0  0  0  0  0  0  0  0  0  0  0  0
    1.0818    3.1496    2.7076 H   0  0  0  0  0  0  0  0  0  0  0  0
    1.1014    1.5739    1.9291 H   0  0  0  0  0  0  0  0  0  0  0  0
   -2.7515    2.1628    0.1111 H   0  0  0  0  0  0  0  0  0  0  0  0
   -1.4519   -3.5781    0.0019 H   0  0  0  0  0  0  0  0  0  0  0  0
   -2.6338   -5.6321    0.2938 H   0  0  0  0  0  0  0  0  0  0  0  0
   -5.0942   -5.5930    0.8171 H   0  0  0  0  0  0  0  0  0  0  0  0
   -6.2617   -3.4689    0.9582 H   0  0  0  0  0  0  0  0  0  0  0  0
   -7.2271   -1.9914    1.0967 H   0  0  0  0  0  0  0  0  0  0  0  0
   -8.3399    0.1154    1.3246 H   0  0  0  0  0  0  0  0  0  0  0  0
   -7.1502    2.2526    1.0559 H   0  0  0  0  0  0  0  0  0  0  0  0
   -4.7731    2.2005    0.5452 H   0  0  0  0  0  0  0  0  0  0  0  0
    2.9489    1.8858   -0.4911 H   0  0  0  0  0  0  0  0  0  0  0  0
    5.0161    1.7347   -0.3089 H   0  0  0  0  0  0  0  0  0  0  0  0
    7.5199    1.5188   -0.0961 H   0  0  0  0  0  0  0  0  0  0  0  0
    8.5027   -0.6886    0.1629 H   0  0  0  0  0  0  0  0  0  0  0  0
    7.1876   -2.6874    0.2249 H   0  0  0  0  0  0  0  0  0  0  0  0
    6.0810   -4.1413    0.3280 H   0  0  0  0  0  0  0  0  0  0  0  0
    4.6183   -6.0958    0.4832 H   0  0  0  0  0  0  0  0  0  0  0  0
    2.1936   -5.8336    0.2747 H   0  0  0  0  0  0  0  0  0  0  0  0
    1.2284   -3.6972   -0.0084 H   0  0  0  0  0  0  0  0  0  0  0  0
   -1.1308    3.1913   -3.3444 H   0  0  0  0  0  0  0  0  0  0  0  0
   -2.4906    2.8636   -2.2608 H   0  0  0  0  0  0  0  0  0  0  0  0
   -1.1637    1.5894   -2.4892 H   0  0  0  0  0  0  0  0  0  0  0  0
   -1.1428    5.2847   -2.0676 H   0  0  0  0  0  0  0  0  0  0  0  0
  1  2  1  0
  2  3  2  0
  3  4  1  0
  4  5  1  0
  4  6  2  0
  6  7  1  0
  7  8  2  0
  8  9  1  0
  9 10  2  0
 10 11  1  0
 11 12  1  0
 12 13  2  0
 13 14  1  0
 14 15  2  0
 15 16  1  0
 16 17  2  0
 17 18  1  0
 18 19  2  0
 19 20  1  0
 20 21  2  0
 21 22  1  0
 22 23  2  0
 11 24  2  0
 24 25  1  0
 25 26  1  0
 25 27  1  0
 25 28  1  0
 28 29  1  0
 29 30  2  0
 30 31  1  0
 31 32  2  0
 32 33  1  0
 33 34  2  0
 34 35  1  0
 35 36  2  0
 36 37  1  0
 37 38  2  0
 38 39  1  0
 39 40  2  0
 40 41  1  0
 41 42  2  0
 42 43  1  0
 43 44  2  0
  6 45  1  0
 45 46  1  0
 45 47  2  0
 47  2  1  0
 29  7  1  0
 44 31  1  0
 24  8  1  0
 44 28  1  0
 23 10  1  0
 37 32  1  0
 43 38  1  0
 17 12  1  0
 23 18  1  0
  1 48  1  0
  1 49  1  0
  1 50  1  0
  3 51  1  0
  5 52  1  0
  5 53  1  0
  5 54  1  0
  9 55  1  0
 13 56  1  0
 14 57  1  0
 15 58  1  0
 16 59  1  0
 19 60  1  0
 20 61  1  0
 21 62  1  0
 22 63  1  0
 30 64  1  0
 33 65  1  0
 34 66  1  0
 35 67  1  0
 36 68  1  0
 39 69  1  0
 40 70  1  0
 41 71  1  0
 42 72  1  0
 46 73  1  0
 46 74  1  0
 46 75  1  0
 47 76  1  0
M  CHG  2  24   1  25  -1
M  END
