
     RDKit          3D

 32 34  0  0  0  0  0  0  0  0999 V2000
    0.1257   -2.0304    0.8721 O   0  0  0  0  0  0  0  0  0  0  0  0
    0.0715   -0.8234    0.5280 C   0  0  0  0  0  0  0  0  0  0  0  0
    1.2347   -0.1033    0.3078 C   0  0  0  0  0  0  0  0  0  0  0  0
    2.4640   -0.7372    0.4735 C   0  0  0  0  0  0  0  0  0  0  0  0
    3.6218   -0.0193    0.2540 C   0  0  0  0  0  0  0  0  0  0  0  0
    5.1934   -0.7638    0.4471 S   0  0  0  0  0  6  0  0  0  0  0  0
    5.1338   -1.8656    1.4445 O   0  0  0  0  0  0  0  0  0  0  0  0
    6.1962    0.2781    0.8641 O   0  0  0  0  0  0  0  0  0  0  0  0
    5.6233   -1.4218   -1.0559 O   0  0  0  0  0  0  0  0  0  0  0  0
    3.4978    1.3015   -0.1217 C   0  0  0  0  0  0  0  0  0  0  0  0
    2.2782    1.9230   -0.2840 C   0  0  0  0  0  0  0  0  0  0  0  0
    1.1181    1.2121   -0.0665 C   0  0  0  0  0  0  0  0  0  0  0  0
   -0.1062    1.7805   -0.2135 N   0  0  0  0  0  0  0  0  0  0  0  0
   -1.2272    1.0892   -0.0020 C   0  0  0  0  0  0  0  0  0  0  0  0
   -2.4901    1.6513   -0.1467 C   0  0  0  0  0  0  0  0  0  0  0  0
   -3.6487    0.9358    0.0721 C   0  0  0  0  0  0  0  0  0  0  0  0
   -3.5861   -0.3888    0.4497 C   0  0  0  0  0  0  0  0  0  0  0  0
   -5.0331   -1.3431    0.7404 S   0  0  0  0  0  6  0  0  0  0  0  0
   -4.6930   -2.4132    1.7360 O   0  0  0  0  0  0  0  0  0  0  0  0
   -6.0812   -0.4071    1.2577 O   0  0  0  0  0  0  0  0  0  0  0  0
   -5.5564   -2.1044   -0.6589 O   0  0  0  0  0  0  0  0  0  0  0  0
   -2.3394   -0.9579    0.5966 C   0  0  0  0  0  0  0  0  0  0  0  0
   -1.1720   -0.2356    0.3757 C   0  0  0  0  0  0  0  0  0  0  0  0
    2.4960   -1.7770    0.7701 H   0  0  0  0  0  0  0  0  0  0  0  0
    6.1782   -0.7714   -1.5609 H   0  0  0  0  0  0  0  0  0  0  0  0
    4.4340    1.8516   -0.2905 H   0  0  0  0  0  0  0  0  0  0  0  0
    2.2014    2.9670   -0.5812 H   0  0  0  0  0  0  0  0  0  0  0  0
   -0.1507    2.7794   -0.4982 H   0  0  0  0  0  0  0  0  0  0  0  0
   -2.5549    2.6757   -0.4385 H   0  0  0  0  0  0  0  0  0  0  0  0
   -4.6418    1.3820   -0.0429 H   0  0  0  0  0  0  0  0  0  0  0  0
   -6.3504   -1.6618   -1.0508 H   0  0  0  0  0  0  0  0  0  0  0  0
   -2.2366   -2.0019    0.8935 H   0  0  0  0  0  0  0  0  0  0  0  0
  1  2  2  0
  2  3  1  0
  3  4  2  0
  4  5  1  0
  5  6  1  0
  6  7  2  0
  6  8  2  0
  6  9  1  0
  5 10  2  0
 10 11  1  0
 11 12  2  0
 12 13  1  0
 13 14  1  0
 14 15  2  0
 15 16  1  0
 16 17  2  0
 17 18  1  0
 18 19  2  0
 18 20  2  0
 18 21  1  0
 17 22  1  0
 22 23  2  0
 23  2  1  0
 12  3  1  0
 23 14  1  0
  4 24  1  0
  9 25  1  0
 10 26  1  0
 11 27  1  0
 13 28  1  0
 15 29  1  0
 16 30  1  0
 21 31  1  0
 22 32  1  0
M  END
