
     RDKit          3D

 23 24  0  0  0  0  0  0  0  0999 V2000
    0.6455   -0.6717   -1.8521 C   0  0  0  0  0  0  0  0  0  0  0  0
   -0.1667   -0.3039   -0.6645 C   0  0  0  0  0  0  0  0  0  0  0  0
   -1.5338   -0.4028   -0.6410 C   0  0  0  0  0  0  0  0  0  0  0  0
   -2.2165   -0.0489    0.4801 N   0  0  0  0  0  0  0  0  0  0  0  0
   -3.6660   -0.1538    0.5052 C   0  0  0  0  0  0  0  0  0  0  0  0
   -1.5966    0.4019    1.5863 C   0  0  0  0  0  0  0  0  0  0  0  0
   -2.2714    0.7208    2.6093 O   0  0  0  0  0  0  0  0  0  0  0  0
   -0.2549    0.5063    1.5834 N   0  0  0  0  0  0  0  0  0  0  0  0
    0.4639    0.1593    0.4734 C   0  0  0  0  0  0  0  0  0  0  0  0
    1.8753    0.2590    0.4423 N   0  0  0  0  0  0  0  0  0  0  0  0
    2.5612    1.2731   -0.0886 C   0  0  0  0  0  0  0  0  0  0  0  0
    3.8989    1.0454    0.0540 N   0  0  0  0  0  0  0  0  0  0  0  0
    4.0025   -0.1454    0.6917 C   0  0  0  0  0  0  0  0  0  0  0  0
    2.7497   -0.5931    0.9112 N   0  0  0  0  0  0  0  0  0  0  0  0
    0.1181   -0.4325   -2.8012 H   0  0  0  0  0  0  0  0  0  0  0  0
    0.7561   -1.7955   -1.8505 H   0  0  0  0  0  0  0  0  0  0  0  0
    1.6517   -0.2573   -1.7936 H   0  0  0  0  0  0  0  0  0  0  0  0
   -2.0481   -0.7642   -1.5238 H   0  0  0  0  0  0  0  0  0  0  0  0
   -4.0517   -0.3575   -0.5195 H   0  0  0  0  0  0  0  0  0  0  0  0
   -4.0156   -0.8793    1.2539 H   0  0  0  0  0  0  0  0  0  0  0  0
   -4.0612    0.8656    0.7704 H   0  0  0  0  0  0  0  0  0  0  0  0
    2.2101    2.1721   -0.5744 H   0  0  0  0  0  0  0  0  0  0  0  0
    4.9494   -0.5976    0.9480 H   0  0  0  0  0  0  0  0  0  0  0  0
  1  2  1  0
  2  3  2  0
  3  4  1  0
  4  5  1  0
  4  6  1  0
  6  7  2  0
  6  8  1  0
  8  9  2  0
  9 10  1  0
 10 11  1  0
 11 12  2  0
 12 13  1  0
 13 14  2  0
  9  2  1  0
 14 10  1  0
  1 15  1  0
  1 16  1  0
  1 17  1  0
  3 18  1  0
  5 19  1  0
  5 20  1  0
  5 21  1  0
 11 22  1  0
 13 23  1  0
M  END
