
     RDKit          3D

 40 43  0  0  0  0  0  0  0  0999 V2000
    7.7631   -1.0246    2.9183 N   0  0  0  0  0  0  0  0  0  0  0  0
    6.6735   -0.8725    2.5631 C   0  0  0  0  0  0  0  0  0  0  0  0
    5.3070   -0.6665    2.1363 C   0  0  0  0  0  0  0  0  0  0  0  0
    5.1124   -0.2106    0.8411 C   0  0  0  0  0  0  0  0  0  0  0  0
    3.8214   -0.0125    0.3981 C   0  0  0  0  0  0  0  0  0  0  0  0
    2.7669   -0.2680    1.2347 C   0  0  0  0  0  0  0  0  0  0  0  0
    1.4340   -0.0725    0.6653 C   0  0  0  0  0  0  0  0  0  0  0  0
    1.1342    0.3708   -0.5883 N   0  0  0  0  0  0  0  0  0  0  0  0
   -0.2282    0.3849   -0.7442 C   0  0  0  0  0  0  0  0  0  0  0  0
   -0.8285    0.7703   -1.9937 C   0  0  0  0  0  0  0  0  0  0  0  0
   -0.3741    0.1171   -3.1543 C   0  0  0  0  0  0  0  0  0  0  0  0
   -0.8842    0.4424   -4.3629 C   0  0  0  0  0  0  0  0  0  0  0  0
   -1.8679    1.4250   -4.5023 C   0  0  0  0  0  0  0  0  0  0  0  0
   -2.3267    2.0745   -3.3887 C   0  0  0  0  0  0  0  0  0  0  0  0
   -1.8070    1.7405   -2.1709 C   0  0  0  0  0  0  0  0  0  0  0  0
   -0.7697   -0.0473    0.4126 C   0  0  0  0  0  0  0  0  0  0  0  0
   -2.1577   -0.2250    0.7548 C   0  0  0  0  0  0  0  0  0  0  0  0
   -3.0453    0.7828    1.0125 C   0  0  0  0  0  0  0  0  0  0  0  0
   -4.3795    0.5813    1.3429 C   0  0  0  0  0  0  0  0  0  0  0  0
   -4.7997   -0.7311    1.4064 C   0  0  0  0  0  0  0  0  0  0  0  0
   -3.9718   -1.7795    1.1627 C   0  0  0  0  0  0  0  0  0  0  0  0
   -2.6557   -1.5329    0.8378 C   0  0  0  0  0  0  0  0  0  0  0  0
    0.2688   -0.3221    1.2623 N   0  0  0  0  0  0  0  0  0  0  0  0
    2.9456   -0.7155    2.5061 C   0  0  0  0  0  0  0  0  0  0  0  0
    4.2440   -0.9165    2.9595 C   0  0  0  0  0  0  0  0  0  0  0  0
    5.9637   -0.0213    0.2020 H   0  0  0  0  0  0  0  0  0  0  0  0
    3.6660    0.3528   -0.6276 H   0  0  0  0  0  0  0  0  0  0  0  0
    0.4056   -0.6586   -3.0254 H   0  0  0  0  0  0  0  0  0  0  0  0
   -0.5607   -0.0397   -5.2873 H   0  0  0  0  0  0  0  0  0  0  0  0
   -2.2588    1.6697   -5.4642 H   0  0  0  0  0  0  0  0  0  0  0  0
   -3.1015    2.8557   -3.4542 H   0  0  0  0  0  0  0  0  0  0  0  0
   -2.1784    2.2735   -1.2832 H   0  0  0  0  0  0  0  0  0  0  0  0
   -2.6916    1.8057    0.9659 H   0  0  0  0  0  0  0  0  0  0  0  0
   -5.0877    1.3580    1.5454 H   0  0  0  0  0  0  0  0  0  0  0  0
   -5.8442   -0.9056    1.6657 H   0  0  0  0  0  0  0  0  0  0  0  0
   -4.3331   -2.7912    1.2250 H   0  0  0  0  0  0  0  0  0  0  0  0
   -1.9789   -2.3275    0.6420 H   0  0  0  0  0  0  0  0  0  0  0  0
    0.1482   -0.6768    2.2338 H   0  0  0  0  0  0  0  0  0  0  0  0
    2.1068   -0.9178    3.1771 H   0  0  0  0  0  0  0  0  0  0  0  0
    4.3695   -1.2693    3.9753 H   0  0  0  0  0  0  0  0  0  0  0  0
  1  2  3  0
  2  3  1  0
  3  4  2  0
  4  5  1  0
  5  6  2  0
  6  7  1  0
  7  8  2  0
  8  9  1  0
  9 10  1  0
 10 11  2  0
 11 12  1  0
 12 13  2  0
 13 14  1  0
 14 15  2  0
  9 16  2  0
 16 17  1  0
 17 18  2  0
 18 19  1  0
 19 20  2  0
 20 21  1  0
 21 22  2  0
 16 23  1  0
  6 24  1  0
 24 25  2  0
 25  3  1  0
 23  7  1  0
 15 10  1  0
 22 17  1  0
  4 26  1  0
  5 27  1  0
 11 28  1  0
 12 29  1  0
 13 30  1  0
 14 31  1  0
 15 32  1  0
 18 33  1  0
 19 34  1  0
 20 35  1  0
 21 36  1  0
 22 37  1  0
 23 38  1  0
 24 39  1  0
 25 40  1  0
M  END
