
     RDKit          3D

 34 36  0  0  0  0  0  0  0  0999 V2000
   -1.9764   -0.6706    0.1467 C   0  0  0  0  0  0  0  0  0  0  0  0
   -1.3996   -1.6800    0.5158 C   0  0  0  0  0  0  0  0  0  0  0  0
   -0.7318   -2.8788    0.9527 C   0  0  0  0  0  0  0  0  0  0  0  0
   -1.4049   -3.9919    1.2872 N   0  0  0  0  0  0  0  0  0  0  0  0
   -0.7699   -5.1040    1.6933 C   0  0  0  0  0  0  0  0  0  0  0  0
    0.6098   -5.0764    1.7599 C   0  0  0  0  0  0  0  0  0  0  0  0
    1.2881   -3.9662    1.4267 N   0  0  0  0  0  0  0  0  0  0  0  0
    0.6226   -2.8717    1.0248 C   0  0  0  0  0  0  0  0  0  0  0  0
    1.3424   -1.6589    0.6596 C   0  0  0  0  0  0  0  0  0  0  0  0
    1.9553   -0.6663    0.3524 C   0  0  0  0  0  0  0  0  0  0  0  0
    2.6917    0.5060   -0.0356 C   0  0  0  0  0  0  0  0  0  0  0  0
    2.2466    1.3234   -1.0555 C   0  0  0  0  0  0  0  0  0  0  0  0
    2.9470    2.4595   -1.4419 C   0  0  0  0  0  0  0  0  0  0  0  0
    4.1212    2.8068   -0.8095 C   0  0  0  0  0  0  0  0  0  0  0  0
    4.5774    2.0078    0.2040 C   0  0  0  0  0  0  0  0  0  0  0  0
    3.8712    0.8835    0.5761 C   0  0  0  0  0  0  0  0  0  0  0  0
   -2.6764    0.5055   -0.2834 C   0  0  0  0  0  0  0  0  0  0  0  0
   -3.9632    0.4118   -0.7899 C   0  0  0  0  0  0  0  0  0  0  0  0
   -4.6312    1.5400   -1.2011 C   0  0  0  0  0  0  0  0  0  0  0  0
   -4.0568    2.7927   -1.1276 C   0  0  0  0  0  0  0  0  0  0  0  0
   -2.7757    2.9003   -0.6251 C   0  0  0  0  0  0  0  0  0  0  0  0
   -2.1269    1.7643   -0.2207 C   0  0  0  0  0  0  0  0  0  0  0  0
   -1.3165   -6.0147    1.9672 H   0  0  0  0  0  0  0  0  0  0  0  0
    1.1651   -5.9628    2.0864 H   0  0  0  0  0  0  0  0  0  0  0  0
    1.3350    1.1193   -1.6003 H   0  0  0  0  0  0  0  0  0  0  0  0
    2.6056    3.0932   -2.2297 H   0  0  0  0  0  0  0  0  0  0  0  0
    4.6950    3.6887   -1.0860 H   0  0  0  0  0  0  0  0  0  0  0  0
    5.4898    2.2480    0.7197 H   0  0  0  0  0  0  0  0  0  0  0  0
    4.2750    0.2872    1.3820 H   0  0  0  0  0  0  0  0  0  0  0  0
   -4.3892   -0.5817   -0.8363 H   0  0  0  0  0  0  0  0  0  0  0  0
   -5.6410    1.4242   -1.5932 H   0  0  0  0  0  0  0  0  0  0  0  0
   -4.6000    3.6877   -1.4591 H   0  0  0  0  0  0  0  0  0  0  0  0
   -2.2731    3.8527   -0.5427 H   0  0  0  0  0  0  0  0  0  0  0  0
   -1.1064    1.8212    0.1831 H   0  0  0  0  0  0  0  0  0  0  0  0
  1  2  3  0
  2  3  1  0
  3  4  2  0
  4  5  1  0
  5  6  2  0
  6  7  1  0
  7  8  2  0
  8  9  1  0
  9 10  3  0
 10 11  1  0
 11 12  2  0
 12 13  1  0
 13 14  2  0
 14 15  1  0
 15 16  2  0
  1 17  1  0
 17 18  2  0
 18 19  1  0
 19 20  2  0
 20 21  1  0
 21 22  2  0
  8  3  1  0
 16 11  1  0
 22 17  1  0
  5 23  1  0
  6 24  1  0
 12 25  1  0
 13 26  1  0
 14 27  1  0
 15 28  1  0
 16 29  1  0
 18 30  1  0
 19 31  1  0
 20 32  1  0
 21 33  1  0
 22 34  1  0
M  END
