
     RDKit          3D

 42 44  0  0  0  0  0  0  0  0999 V2000
    0.2561    4.7470   -3.6726 C   0  0  0  0  0  0  0  0  0  0  0  0
    0.0910    3.5670   -2.8852 O   0  0  0  0  0  0  0  0  0  0  0  0
   -1.1026    3.2628   -2.2610 C   0  0  0  0  0  0  0  0  0  0  0  0
   -2.0687    4.0447   -2.3909 O   0  0  0  0  0  0  0  0  0  0  0  0
   -1.2191    2.0366   -1.4606 C   0  0  0  0  0  0  0  0  0  0  0  0
   -2.4820    1.7945   -0.8293 C   0  0  0  0  0  0  0  0  0  0  0  0
   -3.5078    1.5981   -0.3341 N   0  0  0  0  0  0  0  0  0  0  0  0
   -0.1647    1.2410   -1.3557 C   0  0  0  0  0  0  0  0  0  0  0  0
   -0.3256    0.0302   -0.5498 C   0  0  0  0  0  0  0  0  0  0  0  0
   -1.4136   -0.8143   -0.5533 C   0  0  0  0  0  0  0  0  0  0  0  0
   -1.2196   -1.8027    0.3340 N   0  0  0  0  0  0  0  0  0  0  0  0
   -2.1309   -2.8717    0.6163 C   0  0  0  0  0  0  0  0  0  0  0  0
   -3.3846   -2.6241    1.1582 C   0  0  0  0  0  0  0  0  0  0  0  0
   -4.2828   -3.6429    1.4404 C   0  0  0  0  0  0  0  0  0  0  0  0
   -3.9431   -4.9546    1.1831 C   0  0  0  0  0  0  0  0  0  0  0  0
   -2.7005   -5.2148    0.6447 C   0  0  0  0  0  0  0  0  0  0  0  0
   -1.8191   -4.1909    0.3699 C   0  0  0  0  0  0  0  0  0  0  0  0
   -0.0435   -1.6022    0.8914 N   0  0  0  0  0  0  0  0  0  0  0  0
    0.5481   -0.4896    0.3841 C   0  0  0  0  0  0  0  0  0  0  0  0
    1.8467    0.0520    0.7783 C   0  0  0  0  0  0  0  0  0  0  0  0
    2.8111    0.4076   -0.1234 C   0  0  0  0  0  0  0  0  0  0  0  0
    4.0316    0.9412    0.3073 C   0  0  0  0  0  0  0  0  0  0  0  0
    4.2972    1.1229    1.6421 C   0  0  0  0  0  0  0  0  0  0  0  0
    5.5284    1.6686    2.0753 N   0  0  0  0  0  4  0  0  0  0  0  0
    6.3880    1.9720    1.2347 O   0  0  0  0  0  0  0  0  0  0  0  0
    5.7586    1.8534    3.3893 O   0  0  0  0  0  1  0  0  0  0  0  0
    3.3099    0.7568    2.5380 C   0  0  0  0  0  0  0  0  0  0  0  0
    2.0928    0.2260    2.1304 C   0  0  0  0  0  0  0  0  0  0  0  0
    1.3442    4.9572   -3.7024 H   0  0  0  0  0  0  0  0  0  0  0  0
   -0.2702    5.5896   -3.1446 H   0  0  0  0  0  0  0  0  0  0  0  0
   -0.1326    4.6571   -4.6842 H   0  0  0  0  0  0  0  0  0  0  0  0
    0.7757    1.4903   -1.8564 H   0  0  0  0  0  0  0  0  0  0  0  0
   -2.2923   -0.7365   -1.1553 H   0  0  0  0  0  0  0  0  0  0  0  0
   -3.6415   -1.5922    1.3559 H   0  0  0  0  0  0  0  0  0  0  0  0
   -5.2622   -3.4488    1.8648 H   0  0  0  0  0  0  0  0  0  0  0  0
   -4.6601   -5.7278    1.4119 H   0  0  0  0  0  0  0  0  0  0  0  0
   -2.4502   -6.2459    0.4502 H   0  0  0  0  0  0  0  0  0  0  0  0
   -0.8285   -4.3847   -0.0591 H   0  0  0  0  0  0  0  0  0  0  0  0
    2.6624    0.2794   -1.1818 H   0  0  0  0  0  0  0  0  0  0  0  0
    4.7707    1.2100   -0.4427 H   0  0  0  0  0  0  0  0  0  0  0  0
    3.5093    0.8958    3.5858 H   0  0  0  0  0  0  0  0  0  0  0  0
    1.3238   -0.0579    2.8562 H   0  0  0  0  0  0  0  0  0  0  0  0
  1  2  1  0
  2  3  1  0
  3  4  2  0
  3  5  1  0
  5  6  1  0
  6  7  3  0
  5  8  2  0
  8  9  1  0
  9 10  2  0
 10 11  1  0
 11 12  1  0
 12 13  2  0
 13 14  1  0
 14 15  2  0
 15 16  1  0
 16 17  2  0
 11 18  1  0
 18 19  2  0
 19 20  1  0
 20 21  2  0
 21 22  1  0
 22 23  2  0
 23 24  1  0
 24 25  2  0
 24 26  1  0
 23 27  1  0
 27 28  2  0
 19  9  1  0
 28 20  1  0
 17 12  1  0
  1 29  1  0
  1 30  1  0
  1 31  1  0
  8 32  1  0
 10 33  1  0
 13 34  1  0
 14 35  1  0
 15 36  1  0
 16 37  1  0
 17 38  1  0
 21 39  1  0
 22 40  1  0
 27 41  1  0
 28 42  1  0
M  CHG  2  24   1  26  -1
M  END
