
     RDKit          3D

 49 52  0  0  0  0  0  0  0  0999 V2000
   -5.5249    2.1009   -0.6963 C   0  0  0  0  0  0  0  0  0  0  0  0
   -6.1018    0.8768   -1.3229 C   0  0  0  0  0  0  0  0  0  0  0  0
   -5.1528   -0.1905   -1.4908 N   0  0  0  0  0  0  0  0  0  0  0  0
   -5.6551   -1.4136   -2.1296 C   0  0  0  0  0  0  0  0  0  0  0  0
   -6.6446   -2.0842   -1.1869 C   0  0  0  0  0  0  0  0  0  0  0  0
   -3.7936   -0.1466   -1.0726 C   0  0  0  0  0  0  0  0  0  0  0  0
   -3.3769   -1.0571   -0.1261 C   0  0  0  0  0  0  0  0  0  0  0  0
   -2.0718   -1.0632    0.3256 C   0  0  0  0  0  0  0  0  0  0  0  0
   -1.1866   -0.1381   -0.1882 C   0  0  0  0  0  0  0  0  0  0  0  0
    0.1168   -0.1931    0.3061 C   0  0  0  0  0  0  0  0  0  0  0  0
    0.4989   -1.1185    1.3106 C   0  0  0  0  0  0  0  0  0  0  0  0
    0.8000   -1.8853    2.1199 N   0  0  0  0  0  0  0  0  0  0  0  0
    0.9996    0.7200   -0.2007 C   0  0  0  0  0  0  0  0  0  0  0  0
    2.4050    0.7535    0.1824 C   0  0  0  0  0  0  0  0  0  0  0  0
    3.2537   -0.2288    0.1077 C   0  0  0  0  0  0  0  0  0  0  0  0
    2.8167   -1.5083   -0.4045 C   0  0  0  0  0  0  0  0  0  0  0  0
    2.4578   -2.5214   -0.8093 N   0  0  0  0  0  0  0  0  0  0  0  0
    4.6556   -0.0489    0.5405 C   0  0  0  0  0  0  0  0  0  0  0  0
    5.1778    1.0781    1.0381 N   0  0  0  0  0  0  0  0  0  0  0  0
    6.4764    0.8407    1.3104 C   0  0  0  0  0  0  0  0  0  0  0  0
    7.5268    1.5763    1.8254 C   0  0  0  0  0  0  0  0  0  0  0  0
    8.7996    1.0630    2.0029 C   0  0  0  0  0  0  0  0  0  0  0  0
    9.0164   -0.2498    1.6441 C   0  0  0  0  0  0  0  0  0  0  0  0
    8.0013   -1.0189    1.1283 C   0  0  0  0  0  0  0  0  0  0  0  0
    6.7444   -0.4742    0.9647 C   0  0  0  0  0  0  0  0  0  0  0  0
    5.6035   -0.9547    0.5065 O   0  0  0  0  0  0  0  0  0  0  0  0
    0.5107    1.6144   -1.1555 C   0  0  0  0  0  0  0  0  0  0  0  0
    1.3255    2.4518   -1.6158 O   0  0  0  0  0  0  0  0  0  0  0  0
   -0.7105    1.6285   -1.5842 O   0  0  0  0  0  0  0  0  0  0  0  0
   -1.5914    0.7782   -1.1355 C   0  0  0  0  0  0  0  0  0  0  0  0
   -2.9050    0.7706   -1.5783 C   0  0  0  0  0  0  0  0  0  0  0  0
   -5.3298    2.9225   -1.4185 H   0  0  0  0  0  0  0  0  0  0  0  0
   -4.6057    1.8386   -0.1213 H   0  0  0  0  0  0  0  0  0  0  0  0
   -6.2497    2.5044    0.0379 H   0  0  0  0  0  0  0  0  0  0  0  0
   -6.5569    1.0992   -2.3140 H   0  0  0  0  0  0  0  0  0  0  0  0
   -6.9237    0.4982   -0.6785 H   0  0  0  0  0  0  0  0  0  0  0  0
   -4.8108   -2.0568   -2.3870 H   0  0  0  0  0  0  0  0  0  0  0  0
   -6.2314   -1.1606   -3.0482 H   0  0  0  0  0  0  0  0  0  0  0  0
   -7.6633   -1.6905   -1.3336 H   0  0  0  0  0  0  0  0  0  0  0  0
   -6.6797   -3.1596   -1.4746 H   0  0  0  0  0  0  0  0  0  0  0  0
   -6.3849   -1.9408   -0.1192 H   0  0  0  0  0  0  0  0  0  0  0  0
   -4.0279   -1.8079    0.3145 H   0  0  0  0  0  0  0  0  0  0  0  0
   -1.7361   -1.7804    1.0718 H   0  0  0  0  0  0  0  0  0  0  0  0
    2.7922    1.7107    0.5759 H   0  0  0  0  0  0  0  0  0  0  0  0
    7.3181    2.6177    2.0993 H   0  0  0  0  0  0  0  0  0  0  0  0
    9.5976    1.6680    2.4071 H   0  0  0  0  0  0  0  0  0  0  0  0
   10.0109   -0.6966    1.7672 H   0  0  0  0  0  0  0  0  0  0  0  0
    8.2138   -2.0366    0.8623 H   0  0  0  0  0  0  0  0  0  0  0  0
   -3.2043    1.5130   -2.3349 H   0  0  0  0  0  0  0  0  0  0  0  0
  1  2  1  0
  2  3  1  0
  3  4  1  0
  4  5  1  0
  3  6  1  0
  6  7  2  0
  7  8  1  0
  8  9  2  0
  9 10  1  0
 10 11  1  0
 11 12  3  0
 10 13  2  0
 13 14  1  0
 14 15  2  0
 15 16  1  0
 16 17  3  0
 15 18  1  0
 18 19  2  0
 19 20  1  0
 20 21  2  0
 21 22  1  0
 22 23  2  0
 23 24  1  0
 24 25  2  0
 25 26  1  0
 13 27  1  0
 27 28  2  0
 27 29  1  0
 29 30  1  0
 30 31  2  0
 31  6  1  0
 30  9  1  0
 26 18  1  0
 25 20  1  0
  1 32  1  0
  1 33  1  0
  1 34  1  0
  2 35  1  0
  2 36  1  0
  4 37  1  0
  4 38  1  0
  5 39  1  0
  5 40  1  0
  5 41  1  0
  7 42  1  0
  8 43  1  0
 14 44  1  0
 21 45  1  0
 22 46  1  0
 23 47  1  0
 24 48  1  0
 31 49  1  0
M  END
