
     RDKit          3D

 27 29  0  0  0  0  0  0  0  0999 V2000
   -1.7590   -2.3140   -0.9674 O   0  0  0  0  0  0  0  0  0  0  0  0
   -2.5654   -1.3009   -0.5780 C   0  0  0  0  0  0  0  0  0  0  0  0
   -3.9350   -1.5901   -0.6015 C   0  0  0  0  0  0  0  0  0  0  0  0
   -4.8465   -0.6472   -0.2302 C   0  0  0  0  0  0  0  0  0  0  0  0
   -4.4346    0.5850    0.1672 C   0  0  0  0  0  0  0  0  0  0  0  0
   -3.0625    0.8663    0.1879 C   0  0  0  0  0  0  0  0  0  0  0  0
   -2.1314   -0.0778   -0.1849 C   0  0  0  0  0  0  0  0  0  0  0  0
   -0.6936    0.2538   -0.1506 C   0  0  0  0  0  0  0  0  0  0  0  0
    0.6666   -0.6985   -0.5497 S   0  0  0  0  0  0  0  0  0  0  0  0
    1.9109    0.4170   -0.2377 C   0  0  0  0  0  0  0  0  0  0  0  0
    3.3719    0.2721   -0.3671 C   0  0  0  0  0  0  0  0  0  0  0  0
    4.1364   -0.7801   -0.7675 C   0  0  0  0  0  0  0  0  0  0  0  0
    5.4590   -0.6022   -0.7794 C   0  0  0  0  0  0  0  0  0  0  0  0
    5.9469    0.6188   -0.3900 C   0  0  0  0  0  0  0  0  0  0  0  0
    4.4998    1.4854   -0.0154 S   0  0  0  0  0  0  0  0  0  0  0  0
    1.2240    1.4680    0.1582 N   0  0  0  0  0  0  0  0  0  0  0  0
   -0.0720    1.4277    0.2154 C   0  0  0  0  0  0  0  0  0  0  0  0
   -0.8150    2.5799    0.6488 O   0  0  0  0  0  0  0  0  0  0  0  0
   -0.8081   -2.3459   -1.0304 H   0  0  0  0  0  0  0  0  0  0  0  0
   -4.2361   -2.5643   -0.9171 H   0  0  0  0  0  0  0  0  0  0  0  0
   -5.9108   -0.8742   -0.2493 H   0  0  0  0  0  0  0  0  0  0  0  0
   -5.1457    1.3422    0.4642 H   0  0  0  0  0  0  0  0  0  0  0  0
   -2.8080    1.8751    0.5178 H   0  0  0  0  0  0  0  0  0  0  0  0
    3.6354   -1.7236   -1.0616 H   0  0  0  0  0  0  0  0  0  0  0  0
    6.1748   -1.3882   -1.0865 H   0  0  0  0  0  0  0  0  0  0  0  0
    6.9972    0.9470   -0.3357 H   0  0  0  0  0  0  0  0  0  0  0  0
   -0.7996    2.7685    1.6613 H   0  0  0  0  0  0  0  0  0  0  0  0
  1  2  1  0
  2  3  2  0
  3  4  1  0
  4  5  2  0
  5  6  1  0
  6  7  2  0
  7  8  1  0
  8  9  1  0
  9 10  1  0
 10 11  1  0
 11 12  2  0
 12 13  1  0
 13 14  2  0
 14 15  1  0
 10 16  2  0
 16 17  1  0
 17 18  1  0
  7  2  1  0
 17  8  2  0
 15 11  1  0
  1 19  1  0
  3 20  1  0
  4 21  1  0
  5 22  1  0
  6 23  1  0
 12 24  1  0
 13 25  1  0
 14 26  1  0
 18 27  1  0
M  END
