
     RDKit          3D

 36 38  0  0  0  0  0  0  0  0999 V2000
   -2.4820   -3.8068   -5.7903 C   0  0  0  0  0  0  0  0  0  0  0  0
   -2.0988   -4.0472   -4.4521 O   0  0  0  0  0  0  0  0  0  0  0  0
   -1.7537   -3.0194   -3.6035 C   0  0  0  0  0  0  0  0  0  0  0  0
   -1.7908   -1.7176   -4.0775 C   0  0  0  0  0  0  0  0  0  0  0  0
   -1.4542   -0.6643   -3.2676 C   0  0  0  0  0  0  0  0  0  0  0  0
   -1.0640   -0.8201   -1.9610 C   0  0  0  0  0  0  0  0  0  0  0  0
   -0.7084    0.2992   -1.0826 C   0  0  0  0  0  0  0  0  0  0  0  0
   -0.9476    1.5948   -1.4693 C   0  0  0  0  0  0  0  0  0  0  0  0
   -0.3804    2.4747   -0.1273 S   0  0  0  0  0  0  0  0  0  0  0  0
    0.1243    1.1600    0.8382 C   0  0  0  0  0  0  0  0  0  0  0  0
    0.7842    1.1099    2.1409 C   0  0  0  0  0  0  0  0  0  0  0  0
    1.1847   -0.1715    2.7035 C   0  0  0  0  0  0  0  0  0  0  0  0
    1.5052   -1.1704    3.1498 N   0  0  0  0  0  0  0  0  0  0  0  0
    1.0605    2.1851    2.8200 C   0  0  0  0  0  0  0  0  0  0  0  0
    1.7035    2.3046    4.0953 C   0  0  0  0  0  0  0  0  0  0  0  0
    2.5834    3.3856    4.2196 C   0  0  0  0  0  0  0  0  0  0  0  0
    3.3105    3.6490    5.3417 C   0  0  0  0  0  0  0  0  0  0  0  0
    3.1689    2.8146    6.3905 N   0  0  0  0  0  0  0  0  0  0  0  0
    2.3253    1.7600    6.3033 C   0  0  0  0  0  0  0  0  0  0  0  0
    1.5826    1.4893    5.1623 C   0  0  0  0  0  0  0  0  0  0  0  0
   -0.1666    0.1245    0.0938 N   0  0  0  0  0  0  0  0  0  0  0  0
   -1.0362   -2.1422   -1.5123 C   0  0  0  0  0  0  0  0  0  0  0  0
   -1.3719   -3.2111   -2.3118 C   0  0  0  0  0  0  0  0  0  0  0  0
   -2.8847   -4.7332   -6.2564 H   0  0  0  0  0  0  0  0  0  0  0  0
   -1.5259   -3.5820   -6.3475 H   0  0  0  0  0  0  0  0  0  0  0  0
   -3.1895   -2.9743   -5.9108 H   0  0  0  0  0  0  0  0  0  0  0  0
   -2.0710   -1.5310   -5.0891 H   0  0  0  0  0  0  0  0  0  0  0  0
   -1.4972    0.3399   -3.6898 H   0  0  0  0  0  0  0  0  0  0  0  0
   -1.3903    1.9352   -2.4299 H   0  0  0  0  0  0  0  0  0  0  0  0
    0.7357    3.1291    2.3163 H   0  0  0  0  0  0  0  0  0  0  0  0
    2.6939    4.0792    3.3704 H   0  0  0  0  0  0  0  0  0  0  0  0
    3.9906    4.4832    5.4466 H   0  0  0  0  0  0  0  0  0  0  0  0
    2.2107    1.0865    7.1455 H   0  0  0  0  0  0  0  0  0  0  0  0
    0.9141    0.6514    5.1190 H   0  0  0  0  0  0  0  0  0  0  0  0
   -0.7343   -2.2677   -0.4723 H   0  0  0  0  0  0  0  0  0  0  0  0
   -1.3303   -4.1970   -1.8926 H   0  0  0  0  0  0  0  0  0  0  0  0
  1  2  1  0
  2  3  1  0
  3  4  2  0
  4  5  1  0
  5  6  2  0
  6  7  1  0
  7  8  2  0
  8  9  1  0
  9 10  1  0
 10 11  1  0
 11 12  1  0
 12 13  3  0
 11 14  2  0
 14 15  1  0
 15 16  2  0
 16 17  1  0
 17 18  2  0
 18 19  1  0
 19 20  2  0
 10 21  2  0
  6 22  1  0
 22 23  2  0
 23  3  1  0
 21  7  1  0
 20 15  1  0
  1 24  1  0
  1 25  1  0
  1 26  1  0
  4 27  1  0
  5 28  1  0
  8 29  1  0
 14 30  1  0
 16 31  1  0
 17 32  1  0
 19 33  1  0
 20 34  1  0
 22 35  1  0
 23 36  1  0
M  END
