
     RDKit          3D

 34 35  0  0  0  0  0  0  0  0999 V2000
   -5.8654    0.2436   -0.6884 C   0  0  0  0  0  0  0  0  0  0  0  0
   -4.9151    0.8347    0.2079 N   0  0  0  0  0  0  0  0  0  0  0  0
   -5.4155    1.7125    1.2484 C   0  0  0  0  0  0  0  0  0  0  0  0
   -3.5281    0.5922    0.1104 C   0  0  0  0  0  0  0  0  0  0  0  0
   -2.6432    1.1763    0.9876 C   0  0  0  0  0  0  0  0  0  0  0  0
   -1.2875    0.9375    0.8901 C   0  0  0  0  0  0  0  0  0  0  0  0
   -0.7581    0.1062   -0.0866 C   0  0  0  0  0  0  0  0  0  0  0  0
    0.6626   -0.1352   -0.1775 C   0  0  0  0  0  0  0  0  0  0  0  0
    1.8508   -0.3464   -0.2664 C   0  0  0  0  0  0  0  0  0  0  0  0
    3.2670   -0.5740   -0.3773 C   0  0  0  0  0  0  0  0  0  0  0  0
    4.1797    0.0514    0.4735 C   0  0  0  0  0  0  0  0  0  0  0  0
    5.5326   -0.1641    0.3699 C   0  0  0  0  0  0  0  0  0  0  0  0
    6.0211   -1.0215   -0.5986 C   0  0  0  0  0  0  0  0  0  0  0  0
    7.4510   -1.2415   -0.6988 C   0  0  0  0  0  0  0  0  0  0  0  0
    8.2695   -0.6847    0.0593 O   0  0  0  0  0  0  0  0  0  0  0  0
    5.1203   -1.6526   -1.4548 C   0  0  0  0  0  0  0  0  0  0  0  0
    3.7677   -1.4158   -1.3258 C   0  0  0  0  0  0  0  0  0  0  0  0
   -1.6374   -0.4840   -0.9705 C   0  0  0  0  0  0  0  0  0  0  0  0
   -2.9946   -0.2329   -0.8576 C   0  0  0  0  0  0  0  0  0  0  0  0
   -5.5155    0.1092   -1.7131 H   0  0  0  0  0  0  0  0  0  0  0  0
   -6.2063   -0.7569   -0.3116 H   0  0  0  0  0  0  0  0  0  0  0  0
   -6.8119    0.8498   -0.7598 H   0  0  0  0  0  0  0  0  0  0  0  0
   -6.4693    1.9707    1.0999 H   0  0  0  0  0  0  0  0  0  0  0  0
   -5.3287    1.2253    2.2338 H   0  0  0  0  0  0  0  0  0  0  0  0
   -4.7738    2.6347    1.2025 H   0  0  0  0  0  0  0  0  0  0  0  0
   -2.9859    1.8286    1.7648 H   0  0  0  0  0  0  0  0  0  0  0  0
   -0.6203    1.4110    1.5935 H   0  0  0  0  0  0  0  0  0  0  0  0
    3.8340    0.7212    1.2342 H   0  0  0  0  0  0  0  0  0  0  0  0
    6.2553    0.3105    1.0189 H   0  0  0  0  0  0  0  0  0  0  0  0
    7.8150   -1.9088   -1.4544 H   0  0  0  0  0  0  0  0  0  0  0  0
    5.5203   -2.3298   -2.2182 H   0  0  0  0  0  0  0  0  0  0  0  0
    3.1040   -1.9190   -2.0022 H   0  0  0  0  0  0  0  0  0  0  0  0
   -1.2384   -1.1303   -1.7316 H   0  0  0  0  0  0  0  0  0  0  0  0
   -3.6560   -0.7176   -1.5745 H   0  0  0  0  0  0  0  0  0  0  0  0
  1  2  1  0
  2  3  1  0
  2  4  1  0
  4  5  2  0
  5  6  1  0
  6  7  2  0
  7  8  1  0
  8  9  3  0
  9 10  1  0
 10 11  2  0
 11 12  1  0
 12 13  2  0
 13 14  1  0
 14 15  2  0
 13 16  1  0
 16 17  2  0
  7 18  1  0
 18 19  2  0
 19  4  1  0
 17 10  1  0
  1 20  1  0
  1 21  1  0
  1 22  1  0
  3 23  1  0
  3 24  1  0
  3 25  1  0
  5 26  1  0
  6 27  1  0
 11 28  1  0
 12 29  1  0
 14 30  1  0
 16 31  1  0
 17 32  1  0
 18 33  1  0
 19 34  1  0
M  END
