
     RDKit          3D

 56 61  0  0  0  0  0  0  0  0999 V2000
   -3.6573   -2.6792    1.1709 C   0  0  0  0  0  0  0  0  0  0  0  0
   -4.1139   -1.2721    1.2569 C   0  0  0  0  0  0  0  0  0  0  0  0
   -3.1075   -0.2729    0.9541 N   0  0  0  0  0  0  0  0  0  0  0  0
   -2.2962    0.2634    1.9867 C   0  0  0  0  0  0  0  0  0  0  0  0
   -2.5792   -0.0819    3.1854 O   0  0  0  0  0  0  0  0  0  0  0  0
   -1.1980    1.1660    1.6805 C   0  0  0  0  0  0  0  0  0  0  0  0
    0.1683    0.6175    2.0528 C   0  0  0  0  0  0  0  0  0  0  0  0
    1.0618    1.8222    1.7384 C   0  0  0  0  0  0  0  0  0  0  0  0
    1.0853    2.8617    2.3879 O   0  0  0  0  0  0  0  0  0  0  0  0
    1.8134    1.4540    0.5723 C   0  0  0  0  0  0  0  0  0  0  0  0
    2.7093    2.1488   -0.2170 C   0  0  0  0  0  0  0  0  0  0  0  0
    2.9600    3.4747    0.0500 C   0  0  0  0  0  0  0  0  0  0  0  0
    3.8649    4.1945   -0.7411 C   0  0  0  0  0  0  0  0  0  0  0  0
    4.4795    3.5266   -1.7778 C   0  0  0  0  0  0  0  0  0  0  0  0
    4.2311    2.1992   -2.0483 C   0  0  0  0  0  0  0  0  0  0  0  0
    3.3356    1.4745   -1.2707 C   0  0  0  0  0  0  0  0  0  0  0  0
    3.0905    0.1472   -1.5439 C   0  0  0  0  0  0  0  0  0  0  0  0
    2.1935   -0.5434   -0.7543 C   0  0  0  0  0  0  0  0  0  0  0  0
    1.9640   -1.8915   -0.9574 C   0  0  0  0  0  0  0  0  0  0  0  0
    1.0975   -2.4838   -0.0685 C   0  0  0  0  0  0  0  0  0  0  0  0
    0.8899   -3.8439   -0.2320 C   0  0  0  0  0  0  0  0  0  0  0  0
    0.0749   -4.5533    0.6186 C   0  0  0  0  0  0  0  0  0  0  0  0
   -0.5172   -3.8360    1.6344 C   0  0  0  0  0  0  0  0  0  0  0  0
   -0.3278   -2.4817    1.8181 C   0  0  0  0  0  0  0  0  0  0  0  0
    0.4767   -1.7815    0.9749 C   0  0  0  0  0  0  0  0  0  0  0  0
    0.6956   -0.4285    1.1826 C   0  0  0  0  0  0  0  0  0  0  0  0
    1.5832    0.1354    0.2727 C   0  0  0  0  0  0  0  0  0  0  0  0
   -1.2323    1.7129    0.3197 C   0  0  0  0  0  0  0  0  0  0  0  0
   -0.5279    2.7027    0.0370 O   0  0  0  0  0  0  0  0  0  0  0  0
   -2.0337    1.1693   -0.6972 N   0  0  0  0  0  0  0  0  0  0  0  0
   -1.9378    1.5883   -2.0887 C   0  0  0  0  0  0  0  0  0  0  0  0
   -0.9576    0.7912   -2.8816 C   0  0  0  0  0  0  0  0  0  0  0  0
   -2.9808    0.1710   -0.3850 C   0  0  0  0  0  0  0  0  0  0  0  0
   -3.9515   -0.5021   -1.5282 S   0  0  0  0  0  0  0  0  0  0  0  0
   -4.5830   -3.3147    1.0212 H   0  0  0  0  0  0  0  0  0  0  0  0
   -3.2404   -3.0473    2.1303 H   0  0  0  0  0  0  0  0  0  0  0  0
   -2.9196   -2.8756    0.3743 H   0  0  0  0  0  0  0  0  0  0  0  0
   -4.4301   -1.0760    2.3138 H   0  0  0  0  0  0  0  0  0  0  0  0
   -4.9962   -1.0370    0.6284 H   0  0  0  0  0  0  0  0  0  0  0  0
   -1.3865    2.0820    2.3528 H   0  0  0  0  0  0  0  0  0  0  0  0
    0.2572    0.4681    3.1244 H   0  0  0  0  0  0  0  0  0  0  0  0
    2.4612    3.9629    0.8679 H   0  0  0  0  0  0  0  0  0  0  0  0
    4.0513    5.2298   -0.5212 H   0  0  0  0  0  0  0  0  0  0  0  0
    5.1794    4.0644   -2.3979 H   0  0  0  0  0  0  0  0  0  0  0  0
    4.7192    1.6648   -2.8734 H   0  0  0  0  0  0  0  0  0  0  0  0
    3.5983   -0.3289   -2.3633 H   0  0  0  0  0  0  0  0  0  0  0  0
    2.4512   -2.3859   -1.7617 H   0  0  0  0  0  0  0  0  0  0  0  0
    1.3659   -4.3829   -1.0361 H   0  0  0  0  0  0  0  0  0  0  0  0
   -0.0936   -5.6254    0.4960 H   0  0  0  0  0  0  0  0  0  0  0  0
   -1.1772   -4.3605    2.3414 H   0  0  0  0  0  0  0  0  0  0  0  0
   -0.7944   -1.9902    2.6366 H   0  0  0  0  0  0  0  0  0  0  0  0
   -1.6918    2.6754   -2.1425 H   0  0  0  0  0  0  0  0  0  0  0  0
   -2.9420    1.4805   -2.5405 H   0  0  0  0  0  0  0  0  0  0  0  0
   -0.1219    0.4842   -2.2333 H   0  0  0  0  0  0  0  0  0  0  0  0
   -1.4570   -0.0873   -3.3815 H   0  0  0  0  0  0  0  0  0  0  0  0
   -0.6066    1.4303   -3.7379 H   0  0  0  0  0  0  0  0  0  0  0  0
  1  2  1  0
  2  3  1  0
  3  4  1  0
  4  5  2  0
  4  6  1  0
  6  7  1  0
  7  8  1  0
  8  9  2  0
  8 10  1  0
 10 11  1  0
 11 12  2  0
 12 13  1  0
 13 14  2  0
 14 15  1  0
 15 16  2  0
 16 17  1  0
 17 18  2  0
 18 19  1  0
 19 20  2  0
 20 21  1  0
 21 22  2  0
 22 23  1  0
 23 24  2  0
 24 25  1  0
 25 26  2  0
 26 27  1  0
  6 28  1  0
 28 29  2  0
 28 30  1  0
 30 31  1  0
 31 32  1  0
 30 33  1  0
 33 34  2  0
 33  3  1  0
 26  7  1  0
 27 10  2  0
 16 11  1  0
 27 18  1  0
 25 20  1  0
  1 35  1  0
  1 36  1  0
  1 37  1  0
  2 38  1  0
  2 39  1  0
  6 40  1  0
  7 41  1  0
 12 42  1  0
 13 43  1  0
 14 44  1  0
 15 45  1  0
 17 46  1  0
 19 47  1  0
 21 48  1  0
 22 49  1  0
 23 50  1  0
 24 51  1  0
 31 52  1  0
 31 53  1  0
 32 54  1  0
 32 55  1  0
 32 56  1  0
M  END
