
     RDKit          3D

 72 79  0  0  0  0  0  0  0  0999 V2000
   -1.6579    7.1413    1.5673 C   0  0  0  0  0  0  0  0  0  0  0  0
   -1.3571    5.7091    1.3519 C   0  0  0  0  0  0  0  0  0  0  0  0
   -1.7607    4.7276    2.2173 C   0  0  0  0  0  0  0  0  0  0  0  0
   -1.4443    3.4076    1.9541 C   0  0  0  0  0  0  0  0  0  0  0  0
   -1.8632    2.3887    2.9312 C   0  0  0  0  0  0  0  0  0  0  0  0
   -0.7384    3.0939    0.8411 C   0  0  0  0  0  0  0  0  0  0  0  0
   -0.4168    1.7238    0.4777 C   0  0  0  0  0  0  0  0  0  0  0  0
   -1.3199    0.7950    0.2599 C   0  0  0  0  0  0  0  0  0  0  0  0
   -2.7595    0.9097    0.3341 C   0  0  0  0  0  0  0  0  0  0  0  0
   -3.2196   -0.2886    0.0688 C   0  0  0  0  0  0  0  0  0  0  0  0
   -2.1246   -1.2595   -0.1946 C   0  0  0  0  0  0  0  0  0  0  0  0
   -2.3908   -2.6061   -0.6961 C   0  0  0  0  0  0  0  0  0  0  0  0
   -1.7054   -3.2207   -1.7129 C   0  0  0  0  0  0  0  0  0  0  0  0
   -2.1024   -4.3755   -2.3692 C   0  0  0  0  0  0  0  0  0  0  0  0
   -3.2606   -4.9734   -1.9993 C   0  0  0  0  0  0  0  0  0  0  0  0
   -3.9990   -4.4100   -0.9777 C   0  0  0  0  0  0  0  0  0  0  0  0
   -5.1353   -5.0938   -0.5932 C   0  0  0  0  0  0  0  0  0  0  0  0
   -5.9069   -4.6632    0.4582 C   0  0  0  0  0  0  0  0  0  0  0  0
   -5.5040   -3.5362    1.1061 C   0  0  0  0  0  0  0  0  0  0  0  0
   -4.3579   -2.8367    0.7243 C   0  0  0  0  0  0  0  0  0  0  0  0
   -3.5822   -3.2513   -0.3291 C   0  0  0  0  0  0  0  0  0  0  0  0
   -1.0307   -0.5527   -0.0707 N   0  0  0  0  0  4  0  0  0  0  0  0
    0.4086   -0.9695   -0.2713 B   0  0  0  0  0  4  0  0  0  0  0  0
    0.6846   -2.3275   -0.0725 F   0  0  0  0  0  0  0  0  0  0  0  0
    0.5401   -0.8242   -1.7962 F   0  0  0  0  0  0  0  0  0  0  0  0
    1.4031    0.0571    0.2626 N   0  0  0  0  0  0  0  0  0  0  0  0
    1.0015    1.2983    0.4739 C   0  0  0  0  0  0  0  0  0  0  0  0
    2.1047    2.1003    0.8001 C   0  0  0  0  0  0  0  0  0  0  0  0
    3.1809    1.2686    0.7776 C   0  0  0  0  0  0  0  0  0  0  0  0
    2.7587    0.0184    0.4526 C   0  0  0  0  0  0  0  0  0  0  0  0
    3.5873   -1.1533    0.2290 C   0  0  0  0  0  0  0  0  0  0  0  0
    3.2316   -2.3356    0.8478 C   0  0  0  0  0  0  0  0  0  0  0  0
    3.9749   -3.4588    0.5623 C   0  0  0  0  0  0  0  0  0  0  0  0
    5.0418   -3.4149   -0.3091 C   0  0  0  0  0  0  0  0  0  0  0  0
    5.3744   -2.2222   -0.9113 C   0  0  0  0  0  0  0  0  0  0  0  0
    6.4318   -2.2064   -1.7938 C   0  0  0  0  0  0  0  0  0  0  0  0
    6.8061   -1.0465   -2.4516 C   0  0  0  0  0  0  0  0  0  0  0  0
    6.0785    0.0990   -2.1915 C   0  0  0  0  0  0  0  0  0  0  0  0
    5.0096    0.1148   -1.3082 C   0  0  0  0  0  0  0  0  0  0  0  0
    4.6446   -1.0467   -0.6540 C   0  0  0  0  0  0  0  0  0  0  0  0
   -0.3166    4.0728   -0.0537 C   0  0  0  0  0  0  0  0  0  0  0  0
    0.4391    3.7267   -1.2644 C   0  0  0  0  0  0  0  0  0  0  0  0
   -0.6300    5.3796    0.2091 C   0  0  0  0  0  0  0  0  0  0  0  0
   -0.7269    7.7080    1.3202 H   0  0  0  0  0  0  0  0  0  0  0  0
   -1.8870    7.3025    2.6396 H   0  0  0  0  0  0  0  0  0  0  0  0
   -2.5002    7.5016    0.9355 H   0  0  0  0  0  0  0  0  0  0  0  0
   -2.3332    4.9874    3.1168 H   0  0  0  0  0  0  0  0  0  0  0  0
   -2.9612    2.2677    2.8735 H   0  0  0  0  0  0  0  0  0  0  0  0
   -1.6894    2.7852    3.9818 H   0  0  0  0  0  0  0  0  0  0  0  0
   -1.3705    1.4147    2.7982 H   0  0  0  0  0  0  0  0  0  0  0  0
   -3.3076    1.8209    0.5558 H   0  0  0  0  0  0  0  0  0  0  0  0
   -4.2819   -0.5041   -0.0011 H   0  0  0  0  0  0  0  0  0  0  0  0
   -0.7927   -2.8071   -2.0815 H   0  0  0  0  0  0  0  0  0  0  0  0
   -1.4874   -4.7985   -3.1759 H   0  0  0  0  0  0  0  0  0  0  0  0
   -3.5740   -5.8736   -2.5135 H   0  0  0  0  0  0  0  0  0  0  0  0
   -5.4187   -5.9866   -1.1355 H   0  0  0  0  0  0  0  0  0  0  0  0
   -6.8008   -5.1999    0.7593 H   0  0  0  0  0  0  0  0  0  0  0  0
   -6.1069   -3.1880    1.9430 H   0  0  0  0  0  0  0  0  0  0  0  0
   -4.0647   -2.0029    1.3478 H   0  0  0  0  0  0  0  0  0  0  0  0
    2.0933    3.1696    1.0255 H   0  0  0  0  0  0  0  0  0  0  0  0
    4.2364    1.5799    1.0165 H   0  0  0  0  0  0  0  0  0  0  0  0
    2.4255   -2.4105    1.5910 H   0  0  0  0  0  0  0  0  0  0  0  0
    3.6971   -4.3841    1.0438 H   0  0  0  0  0  0  0  0  0  0  0  0
    5.6224   -4.3032   -0.5274 H   0  0  0  0  0  0  0  0  0  0  0  0
    7.0229   -3.0964   -2.0181 H   0  0  0  0  0  0  0  0  0  0  0  0
    7.6407   -1.0543   -3.1413 H   0  0  0  0  0  0  0  0  0  0  0  0
    6.3231    1.0281   -2.6740 H   0  0  0  0  0  0  0  0  0  0  0  0
    4.4561    1.0192   -1.1592 H   0  0  0  0  0  0  0  0  0  0  0  0
    1.5111    4.0717   -1.2300 H   0  0  0  0  0  0  0  0  0  0  0  0
    0.4364    2.6443   -1.5046 H   0  0  0  0  0  0  0  0  0  0  0  0
    0.0192    4.2162   -2.1826 H   0  0  0  0  0  0  0  0  0  0  0  0
   -0.2988    6.1336   -0.4900 H   0  0  0  0  0  0  0  0  0  0  0  0
  1  2  1  0
  2  3  2  0
  3  4  1  0
  4  5  1  0
  4  6  2  0
  6  7  1  0
  7  8  2  0
  8  9  1  0
  9 10  2  0
 10 11  1  0
 11 12  1  0
 12 13  2  0
 13 14  1  0
 14 15  2  0
 15 16  1  0
 16 17  2  0
 17 18  1  0
 18 19  2  0
 19 20  1  0
 20 21  2  0
 11 22  2  0
 22 23  1  0
 23 24  1  0
 23 25  1  0
 23 26  1  0
 26 27  1  0
 27 28  2  0
 28 29  1  0
 29 30  2  0
 30 31  1  0
 31 32  2  0
 32 33  1  0
 33 34  2  0
 34 35  1  0
 35 36  2  0
 36 37  1  0
 37 38  2  0
 38 39  1  0
 39 40  2  0
  6 41  1  0
 41 42  1  0
 41 43  2  0
 43  2  1  0
 27  7  1  0
 40 31  1  0
 22  8  1  0
 30 26  1  0
 40 35  1  0
 21 12  1  0
 21 16  1  0
  1 44  1  0
  1 45  1  0
  1 46  1  0
  3 47  1  0
  5 48  1  0
  5 49  1  0
  5 50  1  0
  9 51  1  0
 10 52  1  0
 13 53  1  0
 14 54  1  0
 15 55  1  0
 17 56  1  0
 18 57  1  0
 19 58  1  0
 20 59  1  0
 28 60  1  0
 29 61  1  0
 32 62  1  0
 33 63  1  0
 34 64  1  0
 36 65  1  0
 37 66  1  0
 38 67  1  0
 39 68  1  0
 42 69  1  0
 42 70  1  0
 42 71  1  0
 43 72  1  0
M  CHG  2  22   1  23  -1
M  END
