
     RDKit          3D

 86 94  0  0  0  0  0  0  0  0999 V2000
    1.0832    5.3945   -2.1790 C   0  0  0  0  0  0  0  0  0  0  0  0
    0.2330    5.6566   -0.9574 C   0  0  0  0  0  0  0  0  0  0  0  0
   -0.3365    4.2979   -0.4767 C   0  0  0  0  0  0  0  0  0  0  0  0
    0.8394    3.4569   -0.1642 C   0  0  0  0  0  0  0  0  0  0  0  0
    0.5964    2.0537    0.2967 C   0  0  0  0  0  0  0  0  0  0  0  0
   -0.1878    1.8641    1.5262 C   0  0  0  0  0  0  0  0  0  0  0  0
   -1.5677    2.3522    1.6172 C   0  0  0  0  0  0  0  0  0  0  0  0
    0.3027    1.1098   -0.8466 C   0  0  0  0  0  0  0  0  0  0  0  0
    0.0930   -0.2258   -0.3569 N   0  0  0  0  0  0  0  0  0  0  0  0
    1.1016   -1.0959   -0.1353 C   0  0  0  0  0  0  0  0  0  0  0  0
    2.4749   -1.0443   -0.2547 C   0  0  0  0  0  0  0  0  0  0  0  0
    3.2580   -2.1205    0.0541 C   0  0  0  0  0  0  0  0  0  0  0  0
    4.6937   -2.0381   -0.0802 N   0  0  0  0  0  0  0  0  0  0  0  0
    5.6054   -2.3238    0.8651 C   0  0  0  0  0  0  0  0  0  0  0  0
    5.4718   -2.7570    2.1745 C   0  0  0  0  0  0  0  0  0  0  0  0
    6.5784   -2.9863    2.9636 C   0  0  0  0  0  0  0  0  0  0  0  0
    7.8580   -2.7958    2.4872 C   0  0  0  0  0  0  0  0  0  0  0  0
    7.9978   -2.3648    1.1850 C   0  0  0  0  0  0  0  0  0  0  0  0
    6.8906   -2.1349    0.3941 C   0  0  0  0  0  0  0  0  0  0  0  0
    6.7273   -1.7087   -0.9184 C   0  0  0  0  0  0  0  0  0  0  0  0
    7.6751   -1.3701   -1.8730 C   0  0  0  0  0  0  0  0  0  0  0  0
    7.2295   -0.9747   -3.1147 C   0  0  0  0  0  0  0  0  0  0  0  0
    5.8774   -0.9205   -3.3898 C   0  0  0  0  0  0  0  0  0  0  0  0
    4.9648   -1.2627   -2.4214 C   0  0  0  0  0  0  0  0  0  0  0  0
    5.3727   -1.6639   -1.1652 C   0  0  0  0  0  0  0  0  0  0  0  0
    2.6586   -3.2740    0.4918 C   0  0  0  0  0  0  0  0  0  0  0  0
    1.3148   -3.3480    0.6166 C   0  0  0  0  0  0  0  0  0  0  0  0
    0.5371   -2.2520    0.3006 C   0  0  0  0  0  0  0  0  0  0  0  0
   -0.8358   -2.1158    0.3556 C   0  0  0  0  0  0  0  0  0  0  0  0
   -1.8566   -2.9812    0.7191 C   0  0  0  0  0  0  0  0  0  0  0  0
   -3.1609   -2.5590    0.6630 C   0  0  0  0  0  0  0  0  0  0  0  0
   -3.4514   -1.2790    0.2462 C   0  0  0  0  0  0  0  0  0  0  0  0
   -4.8045   -0.8494    0.1902 N   0  0  0  0  0  0  0  0  0  0  0  0
   -5.4042   -0.1593    1.1750 C   0  0  0  0  0  0  0  0  0  0  0  0
   -5.0235    0.3246    2.4125 C   0  0  0  0  0  0  0  0  0  0  0  0
   -5.8918    1.0224    3.2293 C   0  0  0  0  0  0  0  0  0  0  0  0
   -7.1824    1.2580    2.8241 C   0  0  0  0  0  0  0  0  0  0  0  0
   -7.5602    0.7767    1.5937 C   0  0  0  0  0  0  0  0  0  0  0  0
   -6.7074    0.0800    0.7686 C   0  0  0  0  0  0  0  0  0  0  0  0
   -6.9024   -0.4700   -0.4757 C   0  0  0  0  0  0  0  0  0  0  0  0
   -7.9540   -0.5512   -1.3576 C   0  0  0  0  0  0  0  0  0  0  0  0
   -7.8482   -1.1967   -2.5892 C   0  0  0  0  0  0  0  0  0  0  0  0
   -6.6375   -1.7655   -2.9119 C   0  0  0  0  0  0  0  0  0  0  0  0
   -5.5811   -1.6847   -2.0275 C   0  0  0  0  0  0  0  0  0  0  0  0
   -5.6783   -1.0494   -0.8105 C   0  0  0  0  0  0  0  0  0  0  0  0
   -2.4037   -0.4410   -0.1094 C   0  0  0  0  0  0  0  0  0  0  0  0
   -1.0833   -0.8093   -0.0717 C   0  0  0  0  0  0  0  0  0  0  0  0
    2.1068    5.1823   -1.8383 H   0  0  0  0  0  0  0  0  0  0  0  0
    1.1211    6.3213   -2.7818 H   0  0  0  0  0  0  0  0  0  0  0  0
    0.6886    4.5309   -2.7554 H   0  0  0  0  0  0  0  0  0  0  0  0
   -0.6094    6.3539   -1.1724 H   0  0  0  0  0  0  0  0  0  0  0  0
    0.8966    6.0731   -0.1736 H   0  0  0  0  0  0  0  0  0  0  0  0
   -1.0257    4.4912    0.3716 H   0  0  0  0  0  0  0  0  0  0  0  0
   -0.9460    3.9226   -1.3156 H   0  0  0  0  0  0  0  0  0  0  0  0
    1.4557    3.3923   -1.1162 H   0  0  0  0  0  0  0  0  0  0  0  0
    1.5407    3.9430    0.5574 H   0  0  0  0  0  0  0  0  0  0  0  0
    1.6629    1.7061    0.6063 H   0  0  0  0  0  0  0  0  0  0  0  0
   -0.0772    0.7746    1.8306 H   0  0  0  0  0  0  0  0  0  0  0  0
    0.3985    2.3821    2.3541 H   0  0  0  0  0  0  0  0  0  0  0  0
   -2.1458    2.5105    0.7195 H   0  0  0  0  0  0  0  0  0  0  0  0
   -1.6889    3.2621    2.2801 H   0  0  0  0  0  0  0  0  0  0  0  0
   -2.1549    1.5653    2.1997 H   0  0  0  0  0  0  0  0  0  0  0  0
   -0.5244    1.4685   -1.4897 H   0  0  0  0  0  0  0  0  0  0  0  0
    1.1965    1.0949   -1.4997 H   0  0  0  0  0  0  0  0  0  0  0  0
    2.9453   -0.1153   -0.6062 H   0  0  0  0  0  0  0  0  0  0  0  0
    4.4546   -2.9088    2.5544 H   0  0  0  0  0  0  0  0  0  0  0  0
    6.4365   -3.3233    3.9794 H   0  0  0  0  0  0  0  0  0  0  0  0
    8.7282   -2.9832    3.1294 H   0  0  0  0  0  0  0  0  0  0  0  0
    8.9902   -2.2105    0.7955 H   0  0  0  0  0  0  0  0  0  0  0  0
    8.7227   -1.4239   -1.6239 H   0  0  0  0  0  0  0  0  0  0  0  0
    7.9247   -0.6991   -3.8977 H   0  0  0  0  0  0  0  0  0  0  0  0
    5.4949   -0.6127   -4.3593 H   0  0  0  0  0  0  0  0  0  0  0  0
    3.8892   -1.2261   -2.6206 H   0  0  0  0  0  0  0  0  0  0  0  0
    3.2758   -4.1179    0.7338 H   0  0  0  0  0  0  0  0  0  0  0  0
    0.8344   -4.2732    0.9677 H   0  0  0  0  0  0  0  0  0  0  0  0
   -1.5635   -3.9720    1.0368 H   0  0  0  0  0  0  0  0  0  0  0  0
   -3.9435   -3.2422    0.9486 H   0  0  0  0  0  0  0  0  0  0  0  0
   -4.0163    0.1601    2.7676 H   0  0  0  0  0  0  0  0  0  0  0  0
   -5.5781    1.3930    4.1920 H   0  0  0  0  0  0  0  0  0  0  0  0
   -7.9179    1.7906    3.3977 H   0  0  0  0  0  0  0  0  0  0  0  0
   -8.5855    0.9447    1.2332 H   0  0  0  0  0  0  0  0  0  0  0  0
   -8.8875   -0.1076   -1.0988 H   0  0  0  0  0  0  0  0  0  0  0  0
   -8.6917   -1.2540   -3.2808 H   0  0  0  0  0  0  0  0  0  0  0  0
   -6.5197   -2.2729   -3.8564 H   0  0  0  0  0  0  0  0  0  0  0  0
   -4.6261   -2.1459   -2.3073 H   0  0  0  0  0  0  0  0  0  0  0  0
   -2.6374    0.5510   -0.4437 H   0  0  0  0  0  0  0  0  0  0  0  0
  1  2  1  0
  2  3  1  0
  3  4  1  0
  4  5  1  0
  5  6  1  0
  6  7  1  0
  5  8  1  0
  8  9  1  0
  9 10  1  0
 10 11  2  0
 11 12  1  0
 12 13  1  0
 13 14  1  0
 14 15  2  0
 15 16  1  0
 16 17  2  0
 17 18  1  0
 18 19  2  0
 19 20  1  0
 20 21  2  0
 21 22  1  0
 22 23  2  0
 23 24  1  0
 24 25  2  0
 12 26  2  0
 26 27  1  0
 27 28  2  0
 28 29  1  0
 29 30  2  0
 30 31  1  0
 31 32  2  0
 32 33  1  0
 33 34  1  0
 34 35  2  0
 35 36  1  0
 36 37  2  0
 37 38  1  0
 38 39  2  0
 39 40  1  0
 40 41  2  0
 41 42  1  0
 42 43  2  0
 43 44  1  0
 44 45  2  0
 32 46  1  0
 46 47  2  0
 47  9  1  0
 28 10  1  0
 47 29  1  0
 25 13  1  0
 45 33  1  0
 19 14  1  0
 25 20  1  0
 39 34  1  0
 45 40  1  0
  1 48  1  0
  1 49  1  0
  1 50  1  0
  2 51  1  0
  2 52  1  0
  3 53  1  0
  3 54  1  0
  4 55  1  0
  4 56  1  0
  5 57  1  0
  6 58  1  0
  6 59  1  0
  7 60  1  0
  7 61  1  0
  7 62  1  0
  8 63  1  0
  8 64  1  0
 11 65  1  0
 15 66  1  0
 16 67  1  0
 17 68  1  0
 18 69  1  0
 21 70  1  0
 22 71  1  0
 23 72  1  0
 24 73  1  0
 26 74  1  0
 27 75  1  0
 30 76  1  0
 31 77  1  0
 35 78  1  0
 36 79  1  0
 37 80  1  0
 38 81  1  0
 41 82  1  0
 42 83  1  0
 43 84  1  0
 44 85  1  0
 46 86  1  0
M  END
