
     RDKit          3D

 70 74  0  0  0  0  0  0  0  0999 V2000
    0.3867    6.6248    0.2884 C   0  0  0  0  0  0  0  0  0  0  0  0
    0.0047    5.6767    1.3791 C   0  0  0  0  0  0  0  0  0  0  0  0
   -0.3286    4.2816    0.8958 C   0  0  0  0  0  0  0  0  0  0  0  0
    0.8743    3.7227    0.1946 C   0  0  0  0  0  0  0  0  0  0  0  0
    0.6841    2.3349   -0.3212 C   0  0  0  0  0  0  0  0  0  0  0  0
    0.3979    1.3514    0.7812 C   0  0  0  0  0  0  0  0  0  0  0  0
    0.1906    0.0145    0.2692 N   0  0  0  0  0  0  0  0  0  0  0  0
   -1.0553   -0.4465   -0.0753 C   0  0  0  0  0  0  0  0  0  0  0  0
   -2.3110    0.1401   -0.0214 C   0  0  0  0  0  0  0  0  0  0  0  0
   -3.4154   -0.5738   -0.4165 C   0  0  0  0  0  0  0  0  0  0  0  0
   -4.7896   -0.0115   -0.3922 C   0  0  0  0  0  0  0  0  0  0  0  0
   -5.7631   -0.6714    0.1969 C   0  0  0  0  0  0  0  0  0  0  0  0
   -5.4091   -1.9503    0.8107 C   0  0  0  0  0  0  0  0  0  0  0  0
   -5.1114   -2.9523    1.2973 N   0  0  0  0  0  0  0  0  0  0  0  0
   -7.1416   -0.2227    0.2855 C   0  0  0  0  0  0  0  0  0  0  0  0
   -7.5891    0.9664   -0.2207 C   0  0  0  0  0  0  0  0  0  0  0  0
   -8.9150    1.3248   -0.1091 C   0  0  0  0  0  0  0  0  0  0  0  0
   -9.8406    0.4926    0.5211 C   0  0  0  0  0  0  0  0  0  0  0  0
   -9.4081   -0.7105    1.0387 C   0  0  0  0  0  0  0  0  0  0  0  0
   -8.0902   -1.0478    0.9180 C   0  0  0  0  0  0  0  0  0  0  0  0
   -3.2130   -1.8712   -0.8610 C   0  0  0  0  0  0  0  0  0  0  0  0
   -1.9704   -2.4625   -0.9187 C   0  0  0  0  0  0  0  0  0  0  0  0
   -0.8660   -1.7420   -0.5190 C   0  0  0  0  0  0  0  0  0  0  0  0
    0.4875   -2.0790   -0.4489 C   0  0  0  0  0  0  0  0  0  0  0  0
    1.1521   -3.2385   -0.7640 C   0  0  0  0  0  0  0  0  0  0  0  0
    2.5440   -3.2925   -0.5712 C   0  0  0  0  0  0  0  0  0  0  0  0
    3.1974   -2.1829   -0.0722 C   0  0  0  0  0  0  0  0  0  0  0  0
    4.6291   -2.2071    0.1464 C   0  0  0  0  0  0  0  0  0  0  0  0
    5.4439   -2.6807   -0.7657 C   0  0  0  0  0  0  0  0  0  0  0  0
    4.9484   -3.1776   -1.9936 C   0  0  0  0  0  0  0  0  0  0  0  0
    4.5332   -3.5870   -3.0555 N   0  0  0  0  0  0  0  0  0  0  0  0
    6.9082   -2.7274   -0.5342 C   0  0  0  0  0  0  0  0  0  0  0  0
    7.4451   -2.3028    0.6346 C   0  0  0  0  0  0  0  0  0  0  0  0
    8.8300   -2.3424    0.8728 C   0  0  0  0  0  0  0  0  0  0  0  0
    9.6399   -2.8256   -0.1123 C   0  0  0  0  0  0  0  0  0  0  0  0
    9.1256   -3.2696   -1.3229 C   0  0  0  0  0  0  0  0  0  0  0  0
    7.7542   -3.2082   -1.5057 C   0  0  0  0  0  0  0  0  0  0  0  0
    2.4653   -1.0256    0.2310 C   0  0  0  0  0  0  0  0  0  0  0  0
    1.1045   -0.9480    0.0504 C   0  0  0  0  0  0  0  0  0  0  0  0
   -0.1174    7.6146    0.3750 H   0  0  0  0  0  0  0  0  0  0  0  0
    0.2332    6.2056   -0.7290 H   0  0  0  0  0  0  0  0  0  0  0  0
    1.4659    6.8396    0.3962 H   0  0  0  0  0  0  0  0  0  0  0  0
   -0.8951    6.0133    1.9456 H   0  0  0  0  0  0  0  0  0  0  0  0
    0.8228    5.5722    2.1271 H   0  0  0  0  0  0  0  0  0  0  0  0
   -0.6634    3.6752    1.7502 H   0  0  0  0  0  0  0  0  0  0  0  0
   -1.1380    4.3438    0.1331 H   0  0  0  0  0  0  0  0  0  0  0  0
    1.7848    3.7494    0.8492 H   0  0  0  0  0  0  0  0  0  0  0  0
    1.0909    4.3693   -0.6772 H   0  0  0  0  0  0  0  0  0  0  0  0
    1.6673    2.0364   -0.7894 H   0  0  0  0  0  0  0  0  0  0  0  0
   -0.0427    2.2966   -1.1570 H   0  0  0  0  0  0  0  0  0  0  0  0
   -0.4148    1.6822    1.4479 H   0  0  0  0  0  0  0  0  0  0  0  0
    1.3350    1.3316    1.4144 H   0  0  0  0  0  0  0  0  0  0  0  0
   -2.3975    1.1409    0.3270 H   0  0  0  0  0  0  0  0  0  0  0  0
   -5.0118    0.9320   -0.8492 H   0  0  0  0  0  0  0  0  0  0  0  0
   -6.9151    1.6399   -0.7144 H   0  0  0  0  0  0  0  0  0  0  0  0
   -9.3061    2.2498   -0.4943 H   0  0  0  0  0  0  0  0  0  0  0  0
  -10.8859    0.7334    0.6276 H   0  0  0  0  0  0  0  0  0  0  0  0
  -10.0978   -1.4069    1.5425 H   0  0  0  0  0  0  0  0  0  0  0  0
   -7.7508   -1.9899    1.3256 H   0  0  0  0  0  0  0  0  0  0  0  0
   -4.0869   -2.4347   -1.1906 H   0  0  0  0  0  0  0  0  0  0  0  0
   -1.8183   -3.4645   -1.2637 H   0  0  0  0  0  0  0  0  0  0  0  0
    0.6596   -4.1037   -1.1525 H   0  0  0  0  0  0  0  0  0  0  0  0
    3.0796   -4.1986   -0.8020 H   0  0  0  0  0  0  0  0  0  0  0  0
    4.9755   -1.8213    1.0837 H   0  0  0  0  0  0  0  0  0  0  0  0
    6.8806   -1.9102    1.4620 H   0  0  0  0  0  0  0  0  0  0  0  0
    9.2804   -2.0110    1.7911 H   0  0  0  0  0  0  0  0  0  0  0  0
   10.7128   -2.8806    0.0122 H   0  0  0  0  0  0  0  0  0  0  0  0
    9.7327   -3.6522   -2.1076 H   0  0  0  0  0  0  0  0  0  0  0  0
    7.3070   -3.5460   -2.4472 H   0  0  0  0  0  0  0  0  0  0  0  0
    2.9843   -0.1796    0.6140 H   0  0  0  0  0  0  0  0  0  0  0  0
  1  2  1  0
  2  3  1  0
  3  4  1  0
  4  5  1  0
  5  6  1  0
  6  7  1  0
  7  8  1  0
  8  9  2  0
  9 10  1  0
 10 11  1  0
 11 12  2  0
 12 13  1  0
 13 14  3  0
 12 15  1  0
 15 16  2  0
 16 17  1  0
 17 18  2  0
 18 19  1  0
 19 20  2  0
 10 21  2  0
 21 22  1  0
 22 23  2  0
 23 24  1  0
 24 25  2  0
 25 26  1  0
 26 27  2  0
 27 28  1  0
 28 29  2  0
 29 30  1  0
 30 31  3  0
 29 32  1  0
 32 33  2  0
 33 34  1  0
 34 35  2  0
 35 36  1  0
 36 37  2  0
 27 38  1  0
 38 39  2  0
 39  7  1  0
 23  8  1  0
 39 24  1  0
 20 15  1  0
 37 32  1  0
  1 40  1  0
  1 41  1  0
  1 42  1  0
  2 43  1  0
  2 44  1  0
  3 45  1  0
  3 46  1  0
  4 47  1  0
  4 48  1  0
  5 49  1  0
  5 50  1  0
  6 51  1  0
  6 52  1  0
  9 53  1  0
 11 54  1  0
 16 55  1  0
 17 56  1  0
 18 57  1  0
 19 58  1  0
 20 59  1  0
 21 60  1  0
 22 61  1  0
 25 62  1  0
 26 63  1  0
 28 64  1  0
 33 65  1  0
 34 66  1  0
 35 67  1  0
 36 68  1  0
 37 69  1  0
 38 70  1  0
M  END
