
     RDKit          3D

 82 88  0  0  0  0  0  0  0  0999 V2000
  -10.5995    1.7163   -3.0335 C   0  0  0  0  0  0  0  0  0  0  0  0
   -9.7713    2.4632   -2.1692 O   0  0  0  0  0  0  0  0  0  0  0  0
   -8.5826    1.8875   -1.7411 C   0  0  0  0  0  0  0  0  0  0  0  0
   -7.7153    2.5648   -0.8876 C   0  0  0  0  0  0  0  0  0  0  0  0
   -6.5348    2.0011   -0.4585 C   0  0  0  0  0  0  0  0  0  0  0  0
   -6.1734    0.7356   -0.8660 C   0  0  0  0  0  0  0  0  0  0  0  0
   -4.9103    0.1149   -0.4127 C   0  0  0  0  0  0  0  0  0  0  0  0
   -3.6554    0.5547   -0.6081 N   0  0  0  0  0  0  0  0  0  0  0  0
   -2.7564   -0.2745   -0.0473 C   0  0  0  0  0  0  0  0  0  0  0  0
   -1.2996   -0.1612   -0.0300 C   0  0  0  0  0  0  0  0  0  0  0  0
   -0.6594    0.8965   -0.6382 C   0  0  0  0  0  0  0  0  0  0  0  0
    0.7356    0.9972   -0.6152 C   0  0  0  0  0  0  0  0  0  0  0  0
    1.4994    0.0419    0.0154 C   0  0  0  0  0  0  0  0  0  0  0  0
    2.9465    0.2031    0.0069 C   0  0  0  0  0  0  0  0  0  0  0  0
    3.8669   -0.6060    0.5580 N   0  0  0  0  0  0  0  0  0  0  0  0
    5.1240   -0.1293    0.3467 C   0  0  0  0  0  0  0  0  0  0  0  0
    6.3758   -0.7424    0.7998 C   0  0  0  0  0  0  0  0  0  0  0  0
    6.7717   -1.9597    0.2859 C   0  0  0  0  0  0  0  0  0  0  0  0
    7.9546   -2.5590    0.7048 C   0  0  0  0  0  0  0  0  0  0  0  0
    8.7335   -1.9241    1.6429 C   0  0  0  0  0  0  0  0  0  0  0  0
    9.9102   -2.5014    2.0715 O   0  0  0  0  0  0  0  0  0  0  0  0
   10.3394   -3.7617    1.5523 C   0  0  0  0  0  0  0  0  0  0  0  0
    8.3600   -0.7094    2.1704 C   0  0  0  0  0  0  0  0  0  0  0  0
    7.1674   -0.1193    1.7391 C   0  0  0  0  0  0  0  0  0  0  0  0
    4.9567    1.0267   -0.3682 C   0  0  0  0  0  0  0  0  0  0  0  0
    6.0148    1.9120   -0.8385 C   0  0  0  0  0  0  0  0  0  0  0  0
    6.4461    1.8794   -2.1478 C   0  0  0  0  0  0  0  0  0  0  0  0
    7.4350    2.6910   -2.6488 C   0  0  0  0  0  0  0  0  0  0  0  0
    8.0319    3.5936   -1.7866 C   0  0  0  0  0  0  0  0  0  0  0  0
    9.0300    4.4148   -2.2862 O   0  0  0  0  0  0  0  0  0  0  0  0
    9.6388    5.3453   -1.3791 C   0  0  0  0  0  0  0  0  0  0  0  0
    7.6169    3.6451   -0.4702 C   0  0  0  0  0  0  0  0  0  0  0  0
    6.6240    2.8232    0.0127 C   0  0  0  0  0  0  0  0  0  0  0  0
    3.6463    1.2081   -0.5614 N   0  0  0  0  0  0  0  0  0  0  0  0
    0.8708   -1.0089    0.6199 C   0  0  0  0  0  0  0  0  0  0  0  0
   -0.5230   -1.1100    0.5973 C   0  0  0  0  0  0  0  0  0  0  0  0
   -3.4734   -1.2635    0.5163 N   0  0  0  0  0  0  0  0  0  0  0  0
   -4.7866   -1.0567    0.3123 C   0  0  0  0  0  0  0  0  0  0  0  0
   -5.9385   -1.8648    0.7398 C   0  0  0  0  0  0  0  0  0  0  0  0
   -6.1063   -3.1637    0.3173 C   0  0  0  0  0  0  0  0  0  0  0  0
   -7.2125   -3.9157    0.7359 C   0  0  0  0  0  0  0  0  0  0  0  0
   -8.1346   -3.3417    1.5776 C   0  0  0  0  0  0  0  0  0  0  0  0
   -9.2402   -4.0349    2.0201 O   0  0  0  0  0  0  0  0  0  0  0  0
  -10.1827   -3.4370    2.8845 C   0  0  0  0  0  0  0  0  0  0  0  0
   -7.9446   -2.0453    1.9845 C   0  0  0  0  0  0  0  0  0  0  0  0
   -6.8626   -1.2905    1.5828 C   0  0  0  0  0  0  0  0  0  0  0  0
   -7.0081    0.0509   -1.7038 C   0  0  0  0  0  0  0  0  0  0  0  0
   -8.1818    0.6249   -2.1238 C   0  0  0  0  0  0  0  0  0  0  0  0
  -10.1949    1.6176   -4.0524 H   0  0  0  0  0  0  0  0  0  0  0  0
  -11.6145    2.1623   -3.1168 H   0  0  0  0  0  0  0  0  0  0  0  0
  -10.7692    0.6748   -2.6566 H   0  0  0  0  0  0  0  0  0  0  0  0
   -8.0353    3.5714   -0.5828 H   0  0  0  0  0  0  0  0  0  0  0  0
   -5.9023    2.5740    0.2027 H   0  0  0  0  0  0  0  0  0  0  0  0
   -1.2098    1.6714   -1.1453 H   0  0  0  0  0  0  0  0  0  0  0  0
    1.1882    1.8464   -1.1069 H   0  0  0  0  0  0  0  0  0  0  0  0
    6.1357   -2.4304   -0.4496 H   0  0  0  0  0  0  0  0  0  0  0  0
    8.2808   -3.4945    0.3249 H   0  0  0  0  0  0  0  0  0  0  0  0
    9.5540   -4.5225    1.6555 H   0  0  0  0  0  0  0  0  0  0  0  0
   11.2817   -4.0785    2.0413 H   0  0  0  0  0  0  0  0  0  0  0  0
   10.5332   -3.6045    0.4764 H   0  0  0  0  0  0  0  0  0  0  0  0
    8.9447   -0.1945    2.8994 H   0  0  0  0  0  0  0  0  0  0  0  0
    6.8444    0.8292    2.1326 H   0  0  0  0  0  0  0  0  0  0  0  0
    5.9649    1.1585   -2.8232 H   0  0  0  0  0  0  0  0  0  0  0  0
    7.7474    2.6307   -3.7016 H   0  0  0  0  0  0  0  0  0  0  0  0
   10.0328    4.8202   -0.4784 H   0  0  0  0  0  0  0  0  0  0  0  0
   10.5073    5.8451   -1.8577 H   0  0  0  0  0  0  0  0  0  0  0  0
    8.8746    6.0612   -1.0397 H   0  0  0  0  0  0  0  0  0  0  0  0
    8.1212    4.3746    0.1650 H   0  0  0  0  0  0  0  0  0  0  0  0
    6.3154    2.8846    1.0458 H   0  0  0  0  0  0  0  0  0  0  0  0
    3.2194    2.0170   -1.0816 H   0  0  0  0  0  0  0  0  0  0  0  0
    1.4516   -1.7863    1.1306 H   0  0  0  0  0  0  0  0  0  0  0  0
   -1.0342   -1.9363    1.0716 H   0  0  0  0  0  0  0  0  0  0  0  0
   -3.0656   -2.0802    1.0405 H   0  0  0  0  0  0  0  0  0  0  0  0
   -5.3883   -3.6281   -0.3452 H   0  0  0  0  0  0  0  0  0  0  0  0
   -7.3696   -4.9310    0.4221 H   0  0  0  0  0  0  0  0  0  0  0  0
   -9.7383   -3.2403    3.8817 H   0  0  0  0  0  0  0  0  0  0  0  0
  -10.5063   -2.4540    2.4422 H   0  0  0  0  0  0  0  0  0  0  0  0
  -11.0821   -4.0605    2.9244 H   0  0  0  0  0  0  0  0  0  0  0  0
   -8.6678   -1.5662    2.6567 H   0  0  0  0  0  0  0  0  0  0  0  0
   -6.7390   -0.2503    1.9278 H   0  0  0  0  0  0  0  0  0  0  0  0
   -6.6958   -0.9559   -2.0133 H   0  0  0  0  0  0  0  0  0  0  0  0
   -8.8280    0.0636   -2.7877 H   0  0  0  0  0  0  0  0  0  0  0  0
  1  2  1  0
  2  3  1  0
  3  4  2  0
  4  5  1  0
  5  6  2  0
  6  7  1  0
  7  8  1  0
  8  9  2  0
  9 10  1  0
 10 11  2  0
 11 12  1  0
 12 13  2  0
 13 14  1  0
 14 15  2  0
 15 16  1  0
 16 17  1  0
 17 18  2  0
 18 19  1  0
 19 20  2  0
 20 21  1  0
 21 22  1  0
 20 23  1  0
 23 24  2  0
 16 25  2  0
 25 26  1  0
 26 27  2  0
 27 28  1  0
 28 29  2  0
 29 30  1  0
 30 31  1  0
 29 32  1  0
 32 33  2  0
 25 34  1  0
 13 35  1  0
 35 36  2  0
  9 37  1  0
 37 38  1  0
 38 39  1  0
 39 40  2  0
 40 41  1  0
 41 42  2  0
 42 43  1  0
 43 44  1  0
 42 45  1  0
 45 46  2  0
  6 47  1  0
 47 48  2  0
 48  3  1  0
 38  7  2  0
 46 39  1  0
 36 10  1  0
 34 14  1  0
 24 17  1  0
 33 26  1  0
  1 49  1  0
  1 50  1  0
  1 51  1  0
  4 52  1  0
  5 53  1  0
 11 54  1  0
 12 55  1  0
 18 56  1  0
 19 57  1  0
 22 58  1  0
 22 59  1  0
 22 60  1  0
 23 61  1  0
 24 62  1  0
 27 63  1  0
 28 64  1  0
 31 65  1  0
 31 66  1  0
 31 67  1  0
 32 68  1  0
 33 69  1  0
 34 70  1  0
 35 71  1  0
 36 72  1  0
 37 73  1  0
 40 74  1  0
 41 75  1  0
 44 76  1  0
 44 77  1  0
 44 78  1  0
 45 79  1  0
 46 80  1  0
 47 81  1  0
 48 82  1  0
M  END
