
     RDKit          3D

 37 41  0  0  0  0  0  0  0  0999 V2000
   -4.1721   -2.1334    0.3995 O   0  0  0  0  0  0  0  0  0  0  0  0
   -3.2622   -1.2770    0.2189 C   0  0  0  0  0  0  0  0  0  0  0  0
   -3.5907    0.1045   -0.0702 C   0  0  0  0  0  0  0  0  0  0  0  0
   -4.9015    0.5414   -0.1601 C   0  0  0  0  0  0  0  0  0  0  0  0
   -5.1634    1.8539   -0.4349 C   0  0  0  0  0  0  0  0  0  0  0  0
   -4.1279    2.7315   -0.6201 C   0  0  0  0  0  0  0  0  0  0  0  0
   -2.8114    2.3191   -0.5353 C   0  0  0  0  0  0  0  0  0  0  0  0
   -2.5379    0.9947   -0.2581 C   0  0  0  0  0  0  0  0  0  0  0  0
   -1.1516    0.4945   -0.1550 C   0  0  0  0  0  0  0  0  0  0  0  0
   -0.1170    1.3758   -0.3410 C   0  0  0  0  0  0  0  0  0  0  0  0
    1.2085    0.9302   -0.2493 C   0  0  0  0  0  0  0  0  0  0  0  0
    1.5128   -0.3628    0.0213 C   0  0  0  0  0  0  0  0  0  0  0  0
    2.8422   -0.8233    0.1162 N   0  0  0  0  0  0  0  0  0  0  0  0
    4.0292   -0.0887   -0.0393 C   0  0  0  0  0  0  0  0  0  0  0  0
    5.2565   -0.6902    0.0852 N   0  0  0  0  0  0  0  0  0  0  0  0
    6.3903    0.0060   -0.0621 C   0  0  0  0  0  0  0  0  0  0  0  0
    7.9189   -0.8198    0.1090 Cl  0  0  0  0  0  0  0  0  0  0  0  0
    6.3572    1.3165   -0.3367 N   0  0  0  0  0  0  0  0  0  0  0  0
    5.1608    1.9449   -0.4669 C   0  0  0  0  0  0  0  0  0  0  0  0
    5.1426    3.6585   -0.8260 Cl  0  0  0  0  0  0  0  0  0  0  0  0
    4.0684    1.2038   -0.3102 N   0  0  0  0  0  0  0  0  0  0  0  0
    0.4661   -1.2573    0.2101 C   0  0  0  0  0  0  0  0  0  0  0  0
    0.6767   -2.5925    0.4897 C   0  0  0  0  0  0  0  0  0  0  0  0
   -0.3360   -3.5131    0.6838 C   0  0  0  0  0  0  0  0  0  0  0  0
   -1.6303   -3.0869    0.5961 C   0  0  0  0  0  0  0  0  0  0  0  0
   -1.8746   -1.7395    0.3141 C   0  0  0  0  0  0  0  0  0  0  0  0
   -0.8595   -0.8225    0.1207 C   0  0  0  0  0  0  0  0  0  0  0  0
   -5.6978   -0.1702   -0.0100 H   0  0  0  0  0  0  0  0  0  0  0  0
   -6.1925    2.1819   -0.5023 H   0  0  0  0  0  0  0  0  0  0  0  0
   -4.3484    3.7536   -0.8340 H   0  0  0  0  0  0  0  0  0  0  0  0
   -2.0538    3.0627   -0.6921 H   0  0  0  0  0  0  0  0  0  0  0  0
   -0.3009    2.4119   -0.5579 H   0  0  0  0  0  0  0  0  0  0  0  0
    1.9464    1.6843   -0.4082 H   0  0  0  0  0  0  0  0  0  0  0  0
    3.0142   -1.8554    0.3322 H   0  0  0  0  0  0  0  0  0  0  0  0
    1.6707   -2.9932    0.5724 H   0  0  0  0  0  0  0  0  0  0  0  0
   -0.0870   -4.5681    0.9046 H   0  0  0  0  0  0  0  0  0  0  0  0
   -2.4448   -3.7759    0.7416 H   0  0  0  0  0  0  0  0  0  0  0  0
  1  2  2  0
  2  3  1  0
  3  4  2  0
  4  5  1  0
  5  6  2  0
  6  7  1  0
  7  8  2  0
  8  9  1  0
  9 10  1  0
 10 11  2  0
 11 12  1  0
 12 13  1  0
 13 14  1  0
 14 15  2  0
 15 16  1  0
 16 17  1  0
 16 18  2  0
 18 19  1  0
 19 20  1  0
 19 21  2  0
 12 22  2  0
 22 23  1  0
 23 24  2  0
 24 25  1  0
 25 26  2  0
 26 27  1  0
 26  2  1  0
  8  3  1  0
 27  9  2  0
 21 14  1  0
 27 22  1  0
  4 28  1  0
  5 29  1  0
  6 30  1  0
  7 31  1  0
 10 32  1  0
 11 33  1  0
 13 34  1  0
 23 35  1  0
 24 36  1  0
 25 37  1  0
M  END
