
     RDKit          3D

 28 30  0  0  0  0  0  0  0  0999 V2000
   -4.1193   -1.4611   -0.0533 C   0  0  0  0  0  0  0  0  0  0  0  0
   -2.8098   -0.7504   -0.0427 C   0  0  0  0  0  0  0  0  0  0  0  0
   -2.7129    0.6261   -0.0721 C   0  0  0  0  0  0  0  0  0  0  0  0
   -1.4829    1.2511   -0.0611 C   0  0  0  0  0  0  0  0  0  0  0  0
   -1.3755    2.7340   -0.0927 C   0  0  0  0  0  0  0  0  0  0  0  0
   -0.3006    0.5331   -0.0205 C   0  0  0  0  0  0  0  0  0  0  0  0
    0.8782    1.1822   -0.0112 N   0  0  0  0  0  0  0  0  0  0  0  0
    2.0028    0.4231    0.0292 C   0  0  0  0  0  0  0  0  0  0  0  0
    3.2606    1.0043    0.0417 C   0  0  0  0  0  0  0  0  0  0  0  0
    3.2978    2.2587    0.0139 O   0  0  0  0  0  0  0  0  0  0  0  0
    4.3874    0.2609    0.0818 N   0  0  0  0  0  0  0  0  0  0  0  0
    4.3200   -1.0823    0.1110 C   0  0  0  0  0  0  0  0  0  0  0  0
    5.3979   -1.7490    0.1483 O   0  0  0  0  0  0  0  0  0  0  0  0
    3.1104   -1.6711    0.0996 N   0  0  0  0  0  0  0  0  0  0  0  0
    1.9592   -0.9556    0.0597 C   0  0  0  0  0  0  0  0  0  0  0  0
    0.7533   -1.5524    0.0486 N   0  0  0  0  0  0  0  0  0  0  0  0
   -0.3900   -0.8435    0.0090 C   0  0  0  0  0  0  0  0  0  0  0  0
   -1.6336   -1.4672   -0.0023 C   0  0  0  0  0  0  0  0  0  0  0  0
   -4.2840   -1.9622    0.9327 H   0  0  0  0  0  0  0  0  0  0  0  0
   -4.2313   -2.1422   -0.8981 H   0  0  0  0  0  0  0  0  0  0  0  0
   -4.9321   -0.6969   -0.1362 H   0  0  0  0  0  0  0  0  0  0  0  0
   -3.6316    1.2221   -0.1045 H   0  0  0  0  0  0  0  0  0  0  0  0
   -1.0379    3.1162    0.8905 H   0  0  0  0  0  0  0  0  0  0  0  0
   -2.3883    3.1479   -0.2689 H   0  0  0  0  0  0  0  0  0  0  0  0
   -0.7338    3.0674   -0.9352 H   0  0  0  0  0  0  0  0  0  0  0  0
    5.3302    0.7501    0.0899 H   0  0  0  0  0  0  0  0  0  0  0  0
    3.0637   -2.7014    0.1221 H   0  0  0  0  0  0  0  0  0  0  0  0
   -1.6980   -2.5417    0.0209 H   0  0  0  0  0  0  0  0  0  0  0  0
  1  2  1  0
  2  3  2  0
  3  4  1  0
  4  5  1  0
  4  6  2  0
  6  7  1  0
  7  8  2  0
  8  9  1  0
  9 10  2  0
  9 11  1  0
 11 12  1  0
 12 13  2  0
 12 14  1  0
 14 15  1  0
 15 16  2  0
 16 17  1  0
 17 18  2  0
 18  2  1  0
 17  6  1  0
 15  8  1  0
  1 19  1  0
  1 20  1  0
  1 21  1  0
  3 22  1  0
  5 23  1  0
  5 24  1  0
  5 25  1  0
 11 26  1  0
 14 27  1  0
 18 28  1  0
M  END
