
     RDKit          3D

 50 52  0  0  0  0  0  0  0  0999 V2000
    1.6340    3.6513   -3.3085 C   0  0  0  0  0  0  0  0  0  0  0  0
    2.3463    2.3142   -3.0925 C   0  0  0  0  0  0  0  0  0  0  0  0
    3.3236    2.0586   -3.7448 O   0  0  0  0  0  0  0  0  0  0  0  0
    1.7483    1.4741   -2.0549 N   0  0  0  0  0  0  0  0  0  0  0  0
    2.4090    0.1710   -1.7606 C   0  0  0  0  0  0  0  0  0  0  0  0
    3.5635   -0.0787   -2.3682 C   0  0  0  0  0  0  0  0  0  0  0  0
    4.3916   -1.1454   -1.7567 C   0  0  0  0  0  0  0  0  0  0  0  0
    3.9293   -1.7953   -0.6760 C   0  0  0  0  0  0  0  0  0  0  0  0
    2.7185   -1.5206   -0.1006 C   0  0  0  0  0  0  0  0  0  0  0  0
    1.9233   -0.4777   -0.6904 C   0  0  0  0  0  0  0  0  0  0  0  0
    0.5200   -0.6229   -0.3970 C   0  0  0  0  0  0  0  0  0  0  0  0
   -0.5987   -0.7527   -0.1484 C   0  0  0  0  0  0  0  0  0  0  0  0
   -1.9043   -0.9095    0.1417 C   0  0  0  0  0  0  0  0  0  0  0  0
   -2.3338   -2.1743    0.6360 C   0  0  0  0  0  0  0  0  0  0  0  0
   -3.6520   -2.2489    0.9432 C   0  0  0  0  0  0  0  0  0  0  0  0
   -4.5221   -1.1690    0.7740 C   0  0  0  0  0  0  0  0  0  0  0  0
   -4.1095    0.0569    0.2883 C   0  0  0  0  0  0  0  0  0  0  0  0
   -2.7871    0.1360   -0.0101 C   0  0  0  0  0  0  0  0  0  0  0  0
   -2.1527    1.4984   -0.1970 C   0  0  0  0  0  0  0  0  0  0  0  0
   -1.9391    2.0450   -1.2373 O   0  0  0  0  0  0  0  0  0  0  0  0
   -1.7891    2.0917    1.0817 N   0  0  0  0  0  0  0  0  0  0  0  0
   -1.0480    3.2985    1.1633 C   0  0  0  0  0  0  0  0  0  0  0  0
   -2.3224    1.4693    2.2804 C   0  0  0  0  0  0  0  0  0  0  0  0
   -1.5527   -3.2477    0.8092 O   0  0  0  0  0  0  0  0  0  0  0  0
   -0.1724   -3.3883    1.0763 C   0  0  0  0  0  0  0  0  0  0  0  0
    0.2718   -2.6982    2.2793 C   0  0  0  0  0  0  0  0  0  0  0  0
    1.4830   -1.8017    2.0462 C   0  0  0  0  0  0  0  0  0  0  0  0
    2.2830   -2.1641    0.9935 O   0  0  0  0  0  0  0  0  0  0  0  0
    0.5506    3.5686   -3.3650 H   0  0  0  0  0  0  0  0  0  0  0  0
    1.9531    4.3027   -2.4158 H   0  0  0  0  0  0  0  0  0  0  0  0
    2.1662    4.1404   -4.1543 H   0  0  0  0  0  0  0  0  0  0  0  0
    0.9163    1.7598   -1.5430 H   0  0  0  0  0  0  0  0  0  0  0  0
    3.9963    0.3499   -3.2370 H   0  0  0  0  0  0  0  0  0  0  0  0
    5.2963   -1.3927   -2.2412 H   0  0  0  0  0  0  0  0  0  0  0  0
    4.5921   -2.5886   -0.2283 H   0  0  0  0  0  0  0  0  0  0  0  0
   -4.1006   -3.1572    1.3803 H   0  0  0  0  0  0  0  0  0  0  0  0
   -5.5744   -1.2379    1.0488 H   0  0  0  0  0  0  0  0  0  0  0  0
   -4.8074    0.8916    0.1386 H   0  0  0  0  0  0  0  0  0  0  0  0
   -0.0665    3.1360    1.7049 H   0  0  0  0  0  0  0  0  0  0  0  0
   -0.9578    3.9043    0.2621 H   0  0  0  0  0  0  0  0  0  0  0  0
   -1.6573    3.9682    1.9035 H   0  0  0  0  0  0  0  0  0  0  0  0
   -2.2116    2.1086    3.1712 H   0  0  0  0  0  0  0  0  0  0  0  0
   -3.4614    1.3988    2.1587 H   0  0  0  0  0  0  0  0  0  0  0  0
   -1.8650    0.5023    2.4619 H   0  0  0  0  0  0  0  0  0  0  0  0
    0.4640   -3.2328    0.1588 H   0  0  0  0  0  0  0  0  0  0  0  0
    0.0191   -4.5233    1.1956 H   0  0  0  0  0  0  0  0  0  0  0  0
   -0.5111   -2.1012    2.8566 H   0  0  0  0  0  0  0  0  0  0  0  0
    0.6070   -3.4296    3.0490 H   0  0  0  0  0  0  0  0  0  0  0  0
    1.0116   -0.8189    1.8389 H   0  0  0  0  0  0  0  0  0  0  0  0
    1.9793   -1.6191    3.0055 H   0  0  0  0  0  0  0  0  0  0  0  0
  1  2  1  0
  2  3  2  0
  2  4  1  0
  4  5  1  0
  5  6  2  0
  6  7  1  0
  7  8  2  0
  8  9  1  0
  9 10  2  0
 10 11  1  0
 11 12  3  0
 12 13  1  0
 13 14  2  0
 14 15  1  0
 15 16  2  0
 16 17  1  0
 17 18  2  0
 18 19  1  0
 19 20  2  0
 19 21  1  0
 21 22  1  0
 21 23  1  0
 14 24  1  0
 24 25  1  0
 25 26  1  0
 26 27  1  0
 27 28  1  0
 10  5  1  0
 18 13  1  0
 28  9  1  0
  1 29  1  0
  1 30  1  0
  1 31  1  0
  4 32  1  0
  6 33  1  0
  7 34  1  0
  8 35  1  0
 15 36  1  0
 16 37  1  0
 17 38  1  0
 22 39  1  0
 22 40  1  0
 22 41  1  0
 23 42  1  0
 23 43  1  0
 23 44  1  0
 25 45  1  0
 25 46  1  0
 26 47  1  0
 26 48  1  0
 27 49  1  0
 27 50  1  0
M  END
