
     RDKit          3D

 34 37  0  0  0  0  0  0  0  0999 V2000
    3.4590   -7.3296   -3.5590 N   0  0  0  0  0  0  0  0  0  0  0  0
    2.8779   -6.2353   -2.9963 C   0  0  0  0  0  0  0  0  0  0  0  0
    2.3548   -5.2257   -2.4997 C   0  0  0  0  0  0  0  0  0  0  0  0
    1.3856   -5.3012   -1.4165 C   0  0  0  0  0  0  0  0  0  0  0  0
    0.8517   -4.2052   -0.8629 C   0  0  0  0  0  0  0  0  0  0  0  0
    1.1547   -2.9238   -1.2466 C   0  0  0  0  0  0  0  0  0  0  0  0
    0.5498   -1.7534   -0.6607 C   0  0  0  0  0  0  0  0  0  0  0  0
   -0.4555   -1.5342    0.2060 C   0  0  0  0  0  0  0  0  0  0  0  0
   -0.6226   -0.1971    0.4132 N   0  0  0  0  0  0  0  0  0  0  0  0
   -1.3147    0.7389    1.0654 C   0  0  0  0  0  0  0  0  0  0  0  0
   -0.8137    1.9936    0.7094 C   0  0  0  0  0  0  0  0  0  0  0  0
   -1.2951    3.2882    1.1763 C   0  0  0  0  0  0  0  0  0  0  0  0
   -1.1508    4.4357    0.3495 C   0  0  0  0  0  0  0  0  0  0  0  0
   -1.6060    5.6608    0.7791 C   0  0  0  0  0  0  0  0  0  0  0  0
   -2.2091    5.7997    2.0095 C   0  0  0  0  0  0  0  0  0  0  0  0
   -2.3618    4.6960    2.8265 C   0  0  0  0  0  0  0  0  0  0  0  0
   -1.8996    3.4817    2.3777 C   0  0  0  0  0  0  0  0  0  0  0  0
    0.1925    1.7632   -0.1704 C   0  0  0  0  0  0  0  0  0  0  0  0
    0.2792    0.4131   -0.3253 N   0  0  0  0  0  4  0  0  0  0  0  0
    0.9996   -0.4672   -0.9851 N   0  0  0  0  0  2  0  0  0  0  0  0
    2.0768   -2.7968   -2.2704 C   0  0  0  0  0  0  0  0  0  0  0  0
    2.6244   -3.8751   -2.8468 C   0  0  0  0  0  0  0  0  0  0  0  0
    1.1311   -6.3023   -1.1036 H   0  0  0  0  0  0  0  0  0  0  0  0
    0.1087   -4.3450   -0.0527 H   0  0  0  0  0  0  0  0  0  0  0  0
   -1.0724   -2.2926    0.7052 H   0  0  0  0  0  0  0  0  0  0  0  0
   -2.1228    0.6482    1.7724 H   0  0  0  0  0  0  0  0  0  0  0  0
   -0.6851    4.2672   -0.5999 H   0  0  0  0  0  0  0  0  0  0  0  0
   -1.4970    6.5595    0.1563 H   0  0  0  0  0  0  0  0  0  0  0  0
   -2.5729    6.7480    2.3827 H   0  0  0  0  0  0  0  0  0  0  0  0
   -2.8506    4.7981    3.7777 H   0  0  0  0  0  0  0  0  0  0  0  0
   -2.0251    2.5921    3.0330 H   0  0  0  0  0  0  0  0  0  0  0  0
    0.8166    2.4907   -0.6568 H   0  0  0  0  0  0  0  0  0  0  0  0
    2.3300   -1.7850   -2.5980 H   0  0  0  0  0  0  0  0  0  0  0  0
    3.3624   -3.8054   -3.6624 H   0  0  0  0  0  0  0  0  0  0  0  0
  1  2  3  0
  2  3  1  0
  3  4  2  0
  4  5  1  0
  5  6  2  0
  6  7  1  0
  7  8  2  0
  8  9  1  0
  9 10  1  0
 10 11  2  0
 11 12  1  0
 12 13  2  0
 13 14  1  0
 14 15  2  0
 15 16  1  0
 16 17  2  0
 11 18  1  0
 18 19  2  0
 19 20  1  0
  6 21  1  0
 21 22  2  0
 22  3  1  0
 20  7  1  0
 19  9  1  0
 17 12  1  0
  4 23  1  0
  5 24  1  0
  8 25  1  0
 10 26  1  0
 13 27  1  0
 14 28  1  0
 15 29  1  0
 16 30  1  0
 17 31  1  0
 18 32  1  0
 21 33  1  0
 22 34  1  0
M  CHG  2  19   1  20  -1
M  END
