
     RDKit          3D

 51 53  0  0  0  0  0  0  0  0999 V2000
    4.1413   -3.6060    0.0513 C   0  0  0  0  0  0  0  0  0  0  0  0
    4.5014   -2.4349   -0.8625 C   0  0  0  0  0  0  0  0  0  0  0  0
    3.5117   -1.4194   -0.6365 O   0  0  0  0  0  0  0  0  0  0  0  0
    2.1695   -1.6568   -0.8678 C   0  0  0  0  0  0  0  0  0  0  0  0
    1.8538   -2.8075   -1.2868 O   0  0  0  0  0  0  0  0  0  0  0  0
    1.1334   -0.6244   -0.6415 C   0  0  0  0  0  0  0  0  0  0  0  0
    1.5828    0.5274   -0.2069 C   0  0  0  0  0  0  0  0  0  0  0  0
    0.7515    1.6618    0.0767 N   0  0  0  0  0  0  0  0  0  0  0  0
    1.2773    2.8857    0.5590 C   0  0  0  0  0  0  0  0  0  0  0  0
    0.4963    4.0166    0.5015 C   0  0  0  0  0  0  0  0  0  0  0  0
    0.9471    5.2530    0.9701 C   0  0  0  0  0  0  0  0  0  0  0  0
    2.2191    5.3407    1.5081 C   0  0  0  0  0  0  0  0  0  0  0  0
    3.0331    4.2319    1.5839 C   0  0  0  0  0  0  0  0  0  0  0  0
    2.5340    3.0251    1.1027 C   0  0  0  0  0  0  0  0  0  0  0  0
   -0.6292    1.4294   -0.1576 C   0  0  0  0  0  0  0  0  0  0  0  0
   -1.1301    0.2932   -0.5937 C   0  0  0  0  0  0  0  0  0  0  0  0
   -2.5940    0.1914   -0.7939 C   0  0  0  0  0  0  0  0  0  0  0  0
   -3.1352   -0.8447   -1.2011 O   0  0  0  0  0  0  0  0  0  0  0  0
   -3.3768    1.2929   -0.5153 O   0  0  0  0  0  0  0  0  0  0  0  0
   -4.7832    1.2897   -0.6761 C   0  0  0  0  0  0  0  0  0  0  0  0
   -5.3170    2.6563   -0.2809 C   0  0  0  0  0  0  0  0  0  0  0  0
   -0.2655   -0.8582   -0.8788 C   0  0  0  0  0  0  0  0  0  0  0  0
   -0.7923   -2.1114   -0.2876 C   0  0  0  0  0  0  0  0  0  0  0  0
   -1.2427   -3.0985   -1.1314 C   0  0  0  0  0  0  0  0  0  0  0  0
   -1.7517   -4.3024   -0.6712 C   0  0  0  0  0  0  0  0  0  0  0  0
   -1.8076   -4.5162    0.6860 C   0  0  0  0  0  0  0  0  0  0  0  0
   -1.3543   -3.5230    1.5428 C   0  0  0  0  0  0  0  0  0  0  0  0
   -0.8510   -2.3313    1.0677 C   0  0  0  0  0  0  0  0  0  0  0  0
    5.0867   -4.1807    0.2293 H   0  0  0  0  0  0  0  0  0  0  0  0
    3.4372   -4.2957   -0.4213 H   0  0  0  0  0  0  0  0  0  0  0  0
    3.8271   -3.2280    1.0354 H   0  0  0  0  0  0  0  0  0  0  0  0
    5.4861   -2.0746   -0.5109 H   0  0  0  0  0  0  0  0  0  0  0  0
    4.5048   -2.7928   -1.8926 H   0  0  0  0  0  0  0  0  0  0  0  0
    2.6604    0.6850   -0.0364 H   0  0  0  0  0  0  0  0  0  0  0  0
   -0.5028    4.0284    0.0916 H   0  0  0  0  0  0  0  0  0  0  0  0
    0.3300    6.1164    0.9179 H   0  0  0  0  0  0  0  0  0  0  0  0
    2.6017    6.2806    1.8805 H   0  0  0  0  0  0  0  0  0  0  0  0
    4.0205    4.3362    2.0098 H   0  0  0  0  0  0  0  0  0  0  0  0
    3.1752    2.1726    1.1712 H   0  0  0  0  0  0  0  0  0  0  0  0
   -1.3205    2.2471    0.0425 H   0  0  0  0  0  0  0  0  0  0  0  0
   -5.0961    1.0232   -1.6868 H   0  0  0  0  0  0  0  0  0  0  0  0
   -5.2071    0.5533    0.0415 H   0  0  0  0  0  0  0  0  0  0  0  0
   -5.1674    2.8402    0.7963 H   0  0  0  0  0  0  0  0  0  0  0  0
   -4.7804    3.4218   -0.8776 H   0  0  0  0  0  0  0  0  0  0  0  0
   -6.4024    2.6448   -0.5538 H   0  0  0  0  0  0  0  0  0  0  0  0
   -0.3544   -0.9925   -2.0144 H   0  0  0  0  0  0  0  0  0  0  0  0
   -1.2236   -2.9860   -2.2293 H   0  0  0  0  0  0  0  0  0  0  0  0
   -2.0963   -5.0548   -1.3617 H   0  0  0  0  0  0  0  0  0  0  0  0
   -2.2005   -5.4467    1.0646 H   0  0  0  0  0  0  0  0  0  0  0  0
   -1.3975   -3.6892    2.6078 H   0  0  0  0  0  0  0  0  0  0  0  0
   -0.5026   -1.5689    1.7360 H   0  0  0  0  0  0  0  0  0  0  0  0
  1  2  1  0
  2  3  1  0
  3  4  1  0
  4  5  2  0
  4  6  1  0
  6  7  2  0
  7  8  1  0
  8  9  1  0
  9 10  2  0
 10 11  1  0
 11 12  2  0
 12 13  1  0
 13 14  2  0
  8 15  1  0
 15 16  2  0
 16 17  1  0
 17 18  2  0
 17 19  1  0
 19 20  1  0
 20 21  1  0
 16 22  1  0
 22 23  1  0
 23 24  2  0
 24 25  1  0
 25 26  2  0
 26 27  1  0
 27 28  2  0
 22  6  1  0
 28 23  1  0
 14  9  1  0
  1 29  1  0
  1 30  1  0
  1 31  1  0
  2 32  1  0
  2 33  1  0
  7 34  1  0
 10 35  1  0
 11 36  1  0
 12 37  1  0
 13 38  1  0
 14 39  1  0
 15 40  1  0
 20 41  1  0
 20 42  1  0
 21 43  1  0
 21 44  1  0
 21 45  1  0
 22 46  1  0
 24 47  1  0
 25 48  1  0
 26 49  1  0
 27 50  1  0
 28 51  1  0
M  END
