
     RDKit          3D

 67 73  0  0  0  0  0  0  0  0999 V2000
   -8.3957   -4.5804    1.3824 C   0  0  0  0  0  0  0  0  0  0  0  0
   -7.1565   -4.3515    1.9968 O   0  0  0  0  0  0  0  0  0  0  0  0
   -6.3532   -3.3031    1.6068 C   0  0  0  0  0  0  0  0  0  0  0  0
   -6.7390   -2.4503    0.6061 C   0  0  0  0  0  0  0  0  0  0  0  0
   -5.9360   -1.4054    0.2190 C   0  0  0  0  0  0  0  0  0  0  0  0
   -4.7258   -1.2049    0.8393 C   0  0  0  0  0  0  0  0  0  0  0  0
   -3.9172   -0.1245    0.4246 N   0  0  0  0  0  0  0  0  0  0  0  0
   -4.4337    1.1813    0.1955 C   0  0  0  0  0  0  0  0  0  0  0  0
   -5.3082    1.8073    1.0470 C   0  0  0  0  0  0  0  0  0  0  0  0
   -5.7485    3.0625    0.7407 C   0  0  0  0  0  0  0  0  0  0  0  0
   -5.3633    3.7601   -0.3957 C   0  0  0  0  0  0  0  0  0  0  0  0
   -5.8536    5.0364   -0.6418 O   0  0  0  0  0  0  0  0  0  0  0  0
   -5.4651    5.7374   -1.7859 C   0  0  0  0  0  0  0  0  0  0  0  0
   -4.4835    3.1116   -1.2377 C   0  0  0  0  0  0  0  0  0  0  0  0
   -4.0210    1.8304   -0.9451 C   0  0  0  0  0  0  0  0  0  0  0  0
   -2.5226   -0.3298    0.2216 C   0  0  0  0  0  0  0  0  0  0  0  0
   -1.6307    0.5951    0.7226 C   0  0  0  0  0  0  0  0  0  0  0  0
   -0.2794    0.3866    0.5202 C   0  0  0  0  0  0  0  0  0  0  0  0
    0.1810   -0.7161   -0.1649 C   0  0  0  0  0  0  0  0  0  0  0  0
    1.6473   -0.8576   -0.3338 C   0  0  0  0  0  0  0  0  0  0  0  0
    2.3230   -1.8612   -0.9720 C   0  0  0  0  0  0  0  0  0  0  0  0
    3.6602   -1.7868   -1.0046 C   0  0  0  0  0  0  0  0  0  0  0  0
    4.2606   -0.7234   -0.4041 C   0  0  0  0  0  0  0  0  0  0  0  0
    5.6662   -0.3550   -0.2650 C   0  0  0  0  0  0  0  0  0  0  0  0
    5.9319    0.8126    0.4168 C   0  0  0  0  0  0  0  0  0  0  0  0
    7.2055    1.2213    0.5876 C   0  0  0  0  0  0  0  0  0  0  0  0
    8.2267    0.4595    0.0742 C   0  0  0  0  0  0  0  0  0  0  0  0
    9.5935    0.9499    0.2885 C   0  0  0  0  0  0  0  0  0  0  0  0
   10.8122    0.4633   -0.0721 C   0  0  0  0  0  0  0  0  0  0  0  0
   11.9026    1.1589    0.2806 C   0  0  0  0  0  0  0  0  0  0  0  0
   11.7167    2.3170    0.9829 C   0  0  0  0  0  0  0  0  0  0  0  0
   10.0225    2.3974    1.1282 S   0  0  0  0  0  0  0  0  0  0  0  0
    8.0015   -0.7272   -0.6214 C   0  0  0  0  0  0  0  0  0  0  0  0
    8.9333   -1.5162   -1.1460 N   0  0  0  0  0  0  0  0  0  0  0  0
    8.0830   -2.7738   -1.8479 S   0  0  0  0  0  0  0  0  0  0  0  0
    6.5371   -2.2712   -1.4591 N   0  0  0  0  0  0  0  0  0  0  0  0
    6.7121   -1.1313   -0.7886 C   0  0  0  0  0  0  0  0  0  0  0  0
    2.9061    0.1594    0.2011 S   0  0  0  0  0  0  0  0  0  0  0  0
   -0.6942   -1.6269   -0.6584 C   0  0  0  0  0  0  0  0  0  0  0  0
   -2.0387   -1.4252   -0.4605 C   0  0  0  0  0  0  0  0  0  0  0  0
   -4.3269   -2.0533    1.8446 C   0  0  0  0  0  0  0  0  0  0  0  0
   -5.1393   -3.1127    2.2383 C   0  0  0  0  0  0  0  0  0  0  0  0
   -8.7909   -5.5849    1.6801 H   0  0  0  0  0  0  0  0  0  0  0  0
   -8.2814   -4.6057    0.2849 H   0  0  0  0  0  0  0  0  0  0  0  0
   -9.1445   -3.8424    1.6865 H   0  0  0  0  0  0  0  0  0  0  0  0
   -7.6995   -2.5823    0.0901 H   0  0  0  0  0  0  0  0  0  0  0  0
   -6.2891   -0.7489   -0.5881 H   0  0  0  0  0  0  0  0  0  0  0  0
   -5.6149    1.2648    1.9417 H   0  0  0  0  0  0  0  0  0  0  0  0
   -6.4391    3.5665    1.4057 H   0  0  0  0  0  0  0  0  0  0  0  0
   -5.4719    5.0771   -2.6686 H   0  0  0  0  0  0  0  0  0  0  0  0
   -4.4609    6.1625   -1.6614 H   0  0  0  0  0  0  0  0  0  0  0  0
   -6.1626    6.5859   -1.9918 H   0  0  0  0  0  0  0  0  0  0  0  0
   -4.1473    3.6159   -2.1477 H   0  0  0  0  0  0  0  0  0  0  0  0
   -3.3337    1.3906   -1.6552 H   0  0  0  0  0  0  0  0  0  0  0  0
   -1.9652    1.4692    1.2639 H   0  0  0  0  0  0  0  0  0  0  0  0
    0.4202    1.1102    0.9120 H   0  0  0  0  0  0  0  0  0  0  0  0
    1.7399   -2.6900   -1.4334 H   0  0  0  0  0  0  0  0  0  0  0  0
    4.2811   -2.5629   -1.5038 H   0  0  0  0  0  0  0  0  0  0  0  0
    5.1255    1.4325    0.8333 H   0  0  0  0  0  0  0  0  0  0  0  0
    7.4103    2.1483    1.1293 H   0  0  0  0  0  0  0  0  0  0  0  0
   10.8937   -0.4903   -0.6461 H   0  0  0  0  0  0  0  0  0  0  0  0
   12.9444    0.8425    0.0319 H   0  0  0  0  0  0  0  0  0  0  0  0
   12.4836    3.0171    1.3568 H   0  0  0  0  0  0  0  0  0  0  0  0
   -0.3087   -2.4821   -1.1913 H   0  0  0  0  0  0  0  0  0  0  0  0
   -2.7649   -2.1285   -0.8386 H   0  0  0  0  0  0  0  0  0  0  0  0
   -3.3879   -1.9365    2.3597 H   0  0  0  0  0  0  0  0  0  0  0  0
   -4.8270   -3.7887    3.0357 H   0  0  0  0  0  0  0  0  0  0  0  0
  1  2  1  0
  2  3  1  0
  3  4  2  0
  4  5  1  0
  5  6  2  0
  6  7  1  0
  7  8  1  0
  8  9  2  0
  9 10  1  0
 10 11  2  0
 11 12  1  0
 12 13  1  0
 11 14  1  0
 14 15  2  0
  7 16  1  0
 16 17  2  0
 17 18  1  0
 18 19  2  0
 19 20  1  0
 20 21  2  0
 21 22  1  0
 22 23  2  0
 23 24  1  0
 24 25  2  0
 25 26  1  0
 26 27  2  0
 27 28  1  0
 28 29  2  0
 29 30  1  0
 30 31  2  0
 31 32  1  0
 27 33  1  0
 33 34  2  0
 34 35  1  0
 35 36  1  0
 36 37  2  0
 23 38  1  0
 19 39  1  0
 39 40  2  0
  6 41  1  0
 41 42  2  0
 42  3  1  0
 15  8  1  0
 40 16  1  0
 38 20  1  0
 37 24  1  0
 32 28  1  0
 37 33  1  0
  1 43  1  0
  1 44  1  0
  1 45  1  0
  4 46  1  0
  5 47  1  0
  9 48  1  0
 10 49  1  0
 13 50  1  0
 13 51  1  0
 13 52  1  0
 14 53  1  0
 15 54  1  0
 17 55  1  0
 18 56  1  0
 21 57  1  0
 22 58  1  0
 25 59  1  0
 26 60  1  0
 29 61  1  0
 30 62  1  0
 31 63  1  0
 39 64  1  0
 40 65  1  0
 41 66  1  0
 42 67  1  0
M  END
