
     RDKit          3D

 66 73  0  0  0  0  0  0  0  0999 V2000
    4.6675   -1.5869    0.7815 C   0  0  0  0  0  0  0  0  0  0  0  0
    5.8208   -1.1177    0.4290 C   0  0  0  0  0  0  0  0  0  0  0  0
    7.0937   -1.8295    0.6937 C   0  0  0  0  0  0  0  0  0  0  0  0
    7.3965   -3.0412    1.2784 C   0  0  0  0  0  0  0  0  0  0  0  0
    8.6934   -3.4918    1.4098 C   0  0  0  0  0  0  0  0  0  0  0  0
    9.7386   -2.7260    0.9503 C   0  0  0  0  0  0  0  0  0  0  0  0
    9.4601   -1.5144    0.3638 C   0  0  0  0  0  0  0  0  0  0  0  0
    8.1374   -1.0726    0.2388 C   0  0  0  0  0  0  0  0  0  0  0  0
    7.6081    0.1532   -0.3358 C   0  0  0  0  0  0  0  0  0  0  0  0
    8.2694    1.2055   -0.8950 C   0  0  0  0  0  0  0  0  0  0  0  0
    7.5701    2.2828   -1.3648 C   0  0  0  0  0  0  0  0  0  0  0  0
    6.2060    2.2754   -1.2588 C   0  0  0  0  0  0  0  0  0  0  0  0
    5.5394    1.1898   -0.6828 C   0  0  0  0  0  0  0  0  0  0  0  0
    6.2127    0.0999   -0.2066 C   0  0  0  0  0  0  0  0  0  0  0  0
    3.3435   -1.0433    0.6006 C   0  0  0  0  0  0  0  0  0  0  0  0
    2.5338   -0.8564    1.7328 C   0  0  0  0  0  0  0  0  0  0  0  0
    1.2372   -0.4071    1.6418 C   0  0  0  0  0  0  0  0  0  0  0  0
    0.6775   -0.1197    0.4180 C   0  0  0  0  0  0  0  0  0  0  0  0
   -0.7073    0.3633    0.3055 C   0  0  0  0  0  0  0  0  0  0  0  0
   -1.4826    0.0720   -0.7945 C   0  0  0  0  0  0  0  0  0  0  0  0
   -2.7757    0.5324   -0.8828 C   0  0  0  0  0  0  0  0  0  0  0  0
   -3.3607    1.2928    0.0962 C   0  0  0  0  0  0  0  0  0  0  0  0
   -4.7071    1.7756    0.0148 C   0  0  0  0  0  0  0  0  0  0  0  0
   -5.8406    1.1516   -0.1298 C   0  0  0  0  0  0  0  0  0  0  0  0
   -7.1341    1.8698   -0.2001 C   0  0  0  0  0  0  0  0  0  0  0  0
   -7.4616    3.2214   -0.1698 C   0  0  0  0  0  0  0  0  0  0  0  0
   -8.7623    3.6698   -0.2529 C   0  0  0  0  0  0  0  0  0  0  0  0
   -9.7587    2.7237   -0.3698 C   0  0  0  0  0  0  0  0  0  0  0  0
   -9.4721    1.3876   -0.4026 C   0  0  0  0  0  0  0  0  0  0  0  0
   -8.1613    0.9706   -0.3175 C   0  0  0  0  0  0  0  0  0  0  0  0
   -7.6051   -0.3747   -0.3291 C   0  0  0  0  0  0  0  0  0  0  0  0
   -8.2148   -1.6149   -0.4133 C   0  0  0  0  0  0  0  0  0  0  0  0
   -7.4724   -2.7638   -0.3862 C   0  0  0  0  0  0  0  0  0  0  0  0
   -6.1160   -2.6337   -0.2729 C   0  0  0  0  0  0  0  0  0  0  0  0
   -5.4765   -1.3957   -0.1861 C   0  0  0  0  0  0  0  0  0  0  0  0
   -6.2145   -0.2456   -0.2142 C   0  0  0  0  0  0  0  0  0  0  0  0
   -2.5585    1.5789    1.2060 C   0  0  0  0  0  0  0  0  0  0  0  0
   -1.2658    1.1261    1.3080 C   0  0  0  0  0  0  0  0  0  0  0  0
    1.4624   -0.2995   -0.6997 C   0  0  0  0  0  0  0  0  0  0  0  0
    2.7595   -0.7488   -0.6119 C   0  0  0  0  0  0  0  0  0  0  0  0
    4.6328   -2.5776    1.3225 H   0  0  0  0  0  0  0  0  0  0  0  0
    6.5444   -3.6310    1.6358 H   0  0  0  0  0  0  0  0  0  0  0  0
    8.9092   -4.4407    1.8691 H   0  0  0  0  0  0  0  0  0  0  0  0
   10.7500   -3.1044    1.0662 H   0  0  0  0  0  0  0  0  0  0  0  0
   10.2823   -0.9187    0.0058 H   0  0  0  0  0  0  0  0  0  0  0  0
    9.3480    1.2047   -0.9752 H   0  0  0  0  0  0  0  0  0  0  0  0
    8.1342    3.0984   -1.8026 H   0  0  0  0  0  0  0  0  0  0  0  0
    5.6502    3.1178   -1.6253 H   0  0  0  0  0  0  0  0  0  0  0  0
    4.4891    1.2198   -0.5939 H   0  0  0  0  0  0  0  0  0  0  0  0
    2.9853   -1.0861    2.6957 H   0  0  0  0  0  0  0  0  0  0  0  0
    0.6273   -0.2689    2.5266 H   0  0  0  0  0  0  0  0  0  0  0  0
   -1.0320   -0.5365   -1.5906 H   0  0  0  0  0  0  0  0  0  0  0  0
   -3.3414    0.2726   -1.7728 H   0  0  0  0  0  0  0  0  0  0  0  0
   -4.7493    2.9022    0.0965 H   0  0  0  0  0  0  0  0  0  0  0  0
   -6.6759    3.9430   -0.0788 H   0  0  0  0  0  0  0  0  0  0  0  0
   -9.0204    4.7304   -0.2292 H   0  0  0  0  0  0  0  0  0  0  0  0
  -10.7652    3.0717   -0.4340 H   0  0  0  0  0  0  0  0  0  0  0  0
  -10.2630    0.6691   -0.4941 H   0  0  0  0  0  0  0  0  0  0  0  0
   -9.2952   -1.7192   -0.5032 H   0  0  0  0  0  0  0  0  0  0  0  0
   -7.9079   -3.7473   -0.4495 H   0  0  0  0  0  0  0  0  0  0  0  0
   -5.4728   -3.5200   -0.2460 H   0  0  0  0  0  0  0  0  0  0  0  0
   -4.4190   -1.3262   -0.0760 H   0  0  0  0  0  0  0  0  0  0  0  0
   -3.0320    2.1827    1.9770 H   0  0  0  0  0  0  0  0  0  0  0  0
   -0.6627    1.3715    2.1982 H   0  0  0  0  0  0  0  0  0  0  0  0
    1.0138   -0.0714   -1.6539 H   0  0  0  0  0  0  0  0  0  0  0  0
    3.3903   -0.8948   -1.4905 H   0  0  0  0  0  0  0  0  0  0  0  0
  1  2  2  3
  2  3  1  0
  3  4  2  0
  4  5  1  0
  5  6  2  0
  6  7  1  0
  7  8  2  0
  8  9  1  0
  9 10  2  0
 10 11  1  0
 11 12  2  0
 12 13  1  0
 13 14  2  0
  1 15  1  0
 15 16  2  0
 16 17  1  0
 17 18  2  0
 18 19  1  0
 19 20  2  0
 20 21  1  0
 21 22  2  0
 22 23  1  0
 23 24  2  3
 24 25  1  0
 25 26  2  0
 26 27  1  0
 27 28  2  0
 28 29  1  0
 29 30  2  0
 30 31  1  0
 31 32  2  0
 32 33  1  0
 33 34  2  0
 34 35  1  0
 35 36  2  0
 22 37  1  0
 37 38  2  0
 18 39  1  0
 39 40  2  0
 14  2  1  0
 40 15  1  0
  8  3  1  0
 14  9  1  0
 38 19  1  0
 36 24  1  0
 30 25  1  0
 36 31  1  0
  1 41  1  0
  4 42  1  0
  5 43  1  0
  6 44  1  0
  7 45  1  0
 10 46  1  0
 11 47  1  0
 12 48  1  0
 13 49  1  0
 16 50  1  0
 17 51  1  0
 20 52  1  0
 21 53  1  0
 23 54  1  0
 26 55  1  0
 27 56  1  0
 28 57  1  0
 29 58  1  0
 32 59  1  0
 33 60  1  0
 34 61  1  0
 35 62  1  0
 37 63  1  0
 38 64  1  0
 39 65  1  0
 40 66  1  0
M  END
