
     RDKit          3D

108114  0  0  0  0  0  0  0  0999 V2000
   12.3647   -1.2464    1.5031 C   0  0  0  0  0  0  0  0  0  0  0  0
   12.1599    0.0667    0.7887 C   0  0  0  0  0  0  0  0  0  0  0  0
   11.1955    0.0446   -0.3232 C   0  0  0  0  0  0  0  0  0  0  0  0
   11.5913   -0.9501   -1.4238 C   0  0  0  0  0  0  0  0  0  0  0  0
   11.3115    1.4109   -1.0337 C   0  0  0  0  0  0  0  0  0  0  0  0
    9.7847   -0.2348   -0.0074 C   0  0  0  0  0  0  0  0  0  0  0  0
    9.3917   -1.5016    0.3581 C   0  0  0  0  0  0  0  0  0  0  0  0
    8.0656   -1.7398    0.5497 C   0  0  0  0  0  0  0  0  0  0  0  0
    7.1205   -0.7207    0.3794 C   0  0  0  0  0  0  0  0  0  0  0  0
    7.4821    0.5528    0.0203 C   0  0  0  0  0  0  0  0  0  0  0  0
    8.8508    0.7761   -0.1713 C   0  0  0  0  0  0  0  0  0  0  0  0
    6.2947    1.4026   -0.1054 C   0  0  0  0  0  0  0  0  0  0  0  0
    6.2552    2.5887    0.8215 C   0  0  0  0  0  0  0  0  0  0  0  0
    6.2574    2.2301    2.2704 C   0  0  0  0  0  0  0  0  0  0  0  0
    6.0823    1.8679   -1.5542 C   0  0  0  0  0  0  0  0  0  0  0  0
    7.2268    2.6516   -2.0772 C   0  0  0  0  0  0  0  0  0  0  0  0
    5.1483    0.4677    0.1377 C   0  0  0  0  0  0  0  0  0  0  0  0
    3.7570    0.6282    0.0530 C   0  0  0  0  0  0  0  0  0  0  0  0
    2.9420   -0.4557    0.2796 C   0  0  0  0  0  0  0  0  0  0  0  0
    1.5098   -0.3218    0.1715 C   0  0  0  0  0  0  0  0  0  0  0  0
    0.9624    0.6647   -0.6452 C   0  0  0  0  0  0  0  0  0  0  0  0
   -0.3974    0.7559   -0.8852 C   0  0  0  0  0  0  0  0  0  0  0  0
   -1.2848   -0.1393   -0.3198 C   0  0  0  0  0  0  0  0  0  0  0  0
   -2.7090   -0.0121   -0.5630 C   0  0  0  0  0  0  0  0  0  0  0  0
   -3.1672    0.6044   -1.7362 C   0  0  0  0  0  0  0  0  0  0  0  0
   -4.4889    0.7271   -2.0678 C   0  0  0  0  0  0  0  0  0  0  0  0
   -5.4372    0.2031   -1.1804 C   0  0  0  0  0  0  0  0  0  0  0  0
   -5.0287   -0.3995   -0.0538 C   0  0  0  0  0  0  0  0  0  0  0  0
   -3.6783   -0.5144    0.2753 C   0  0  0  0  0  0  0  0  0  0  0  0
   -6.2559   -0.9764    0.6414 C   0  0  0  0  0  0  0  0  0  0  0  0
   -6.1097   -0.8422    2.0966 C   0  0  0  0  0  0  0  0  0  0  0  0
   -7.1229   -1.3597    3.0241 C   0  0  0  0  0  0  0  0  0  0  0  0
   -6.2419   -2.4354    0.1654 C   0  0  0  0  0  0  0  0  0  0  0  0
   -7.3409   -3.2747    0.6784 C   0  0  0  0  0  0  0  0  0  0  0  0
   -7.3851   -0.3489   -0.0539 C   0  0  0  0  0  0  0  0  0  0  0  0
   -8.7707   -0.3186    0.1516 C   0  0  0  0  0  0  0  0  0  0  0  0
   -9.6470    0.2774   -0.7483 C   0  0  0  0  0  0  0  0  0  0  0  0
  -11.1093    0.2931   -0.5112 C   0  0  0  0  0  0  0  0  0  0  0  0
  -11.8208    0.9935   -1.6542 C   0  0  0  0  0  0  0  0  0  0  0  0
  -11.5650   -1.1448   -0.3679 C   0  0  0  0  0  0  0  0  0  0  0  0
  -11.3934    1.0999    0.7455 C   0  0  0  0  0  0  0  0  0  0  0  0
  -12.8468    1.1900    1.0838 C   0  0  0  0  0  0  0  0  0  0  0  0
   -9.1349    0.8603   -1.8839 C   0  0  0  0  0  0  0  0  0  0  0  0
   -7.7748    0.8374   -2.0940 C   0  0  0  0  0  0  0  0  0  0  0  0
   -6.8925    0.2434   -1.1927 C   0  0  0  0  0  0  0  0  0  0  0  0
   -0.7590   -1.1218    0.4953 C   0  0  0  0  0  0  0  0  0  0  0  0
    0.6101   -1.2162    0.7408 C   0  0  0  0  0  0  0  0  0  0  0  0
    3.4960   -1.6713    0.5886 C   0  0  0  0  0  0  0  0  0  0  0  0
    4.8555   -1.8631    0.6831 C   0  0  0  0  0  0  0  0  0  0  0  0
    5.6689   -0.7553    0.4447 C   0  0  0  0  0  0  0  0  0  0  0  0
   13.3687   -1.1536    2.0228 H   0  0  0  0  0  0  0  0  0  0  0  0
   12.4672   -2.0408    0.7017 H   0  0  0  0  0  0  0  0  0  0  0  0
   11.5492   -1.4850    2.2080 H   0  0  0  0  0  0  0  0  0  0  0  0
   11.8871    0.8694    1.5234 H   0  0  0  0  0  0  0  0  0  0  0  0
   13.1629    0.3620    0.3788 H   0  0  0  0  0  0  0  0  0  0  0  0
   11.4028   -1.9940   -1.0971 H   0  0  0  0  0  0  0  0  0  0  0  0
   10.8779   -0.7608   -2.2578 H   0  0  0  0  0  0  0  0  0  0  0  0
   12.6009   -0.7626   -1.7924 H   0  0  0  0  0  0  0  0  0  0  0  0
   11.1306    2.1652   -0.2628 H   0  0  0  0  0  0  0  0  0  0  0  0
   10.5618    1.4500   -1.8518 H   0  0  0  0  0  0  0  0  0  0  0  0
   12.3374    1.4156   -1.4382 H   0  0  0  0  0  0  0  0  0  0  0  0
   10.1072   -2.3237    0.5012 H   0  0  0  0  0  0  0  0  0  0  0  0
    7.7701   -2.7559    0.8449 H   0  0  0  0  0  0  0  0  0  0  0  0
    9.1440    1.7646   -0.4417 H   0  0  0  0  0  0  0  0  0  0  0  0
    5.3648    3.1971    0.5570 H   0  0  0  0  0  0  0  0  0  0  0  0
    7.1269    3.2632    0.5954 H   0  0  0  0  0  0  0  0  0  0  0  0
    7.2709    2.2501    2.7070 H   0  0  0  0  0  0  0  0  0  0  0  0
    5.8205    1.2204    2.4116 H   0  0  0  0  0  0  0  0  0  0  0  0
    5.5912    2.9171    2.8721 H   0  0  0  0  0  0  0  0  0  0  0  0
    5.8978    0.9248   -2.1326 H   0  0  0  0  0  0  0  0  0  0  0  0
    5.1363    2.4737   -1.5422 H   0  0  0  0  0  0  0  0  0  0  0  0
    7.6595    3.3324   -1.3271 H   0  0  0  0  0  0  0  0  0  0  0  0
    7.9866    1.9645   -2.5205 H   0  0  0  0  0  0  0  0  0  0  0  0
    6.8725    3.2881   -2.9451 H   0  0  0  0  0  0  0  0  0  0  0  0
    3.4021    1.6133   -0.1871 H   0  0  0  0  0  0  0  0  0  0  0  0
    1.6216    1.4008   -1.1322 H   0  0  0  0  0  0  0  0  0  0  0  0
   -0.7877    1.5564   -1.5310 H   0  0  0  0  0  0  0  0  0  0  0  0
   -2.4529    1.0311   -2.4569 H   0  0  0  0  0  0  0  0  0  0  0  0
   -4.8564    1.1938   -2.9486 H   0  0  0  0  0  0  0  0  0  0  0  0
   -3.4096   -1.0108    1.2005 H   0  0  0  0  0  0  0  0  0  0  0  0
   -5.1228   -1.3557    2.3760 H   0  0  0  0  0  0  0  0  0  0  0  0
   -5.8881    0.2294    2.4141 H   0  0  0  0  0  0  0  0  0  0  0  0
   -8.1365   -0.9444    2.9637 H   0  0  0  0  0  0  0  0  0  0  0  0
   -6.7765   -1.0117    4.0732 H   0  0  0  0  0  0  0  0  0  0  0  0
   -7.0868   -2.4764    3.1641 H   0  0  0  0  0  0  0  0  0  0  0  0
   -6.4085   -2.3436   -0.9550 H   0  0  0  0  0  0  0  0  0  0  0  0
   -5.2348   -2.8874    0.2510 H   0  0  0  0  0  0  0  0  0  0  0  0
   -6.8722   -4.0719    1.3380 H   0  0  0  0  0  0  0  0  0  0  0  0
   -7.8191   -3.8911   -0.1589 H   0  0  0  0  0  0  0  0  0  0  0  0
   -8.1805   -2.7876    1.1571 H   0  0  0  0  0  0  0  0  0  0  0  0
   -9.2081   -0.7533    1.0225 H   0  0  0  0  0  0  0  0  0  0  0  0
  -11.4410    2.0430   -1.6709 H   0  0  0  0  0  0  0  0  0  0  0  0
  -11.6307    0.4835   -2.6224 H   0  0  0  0  0  0  0  0  0  0  0  0
  -12.8956    1.0094   -1.5124 H   0  0  0  0  0  0  0  0  0  0  0  0
  -12.6531   -1.2113   -0.1544 H   0  0  0  0  0  0  0  0  0  0  0  0
  -10.9248   -1.6120    0.3977 H   0  0  0  0  0  0  0  0  0  0  0  0
  -11.3048   -1.6572   -1.3303 H   0  0  0  0  0  0  0  0  0  0  0  0
  -10.9996    2.1144    0.5662 H   0  0  0  0  0  0  0  0  0  0  0  0
  -10.8650    0.7033    1.6436 H   0  0  0  0  0  0  0  0  0  0  0  0
  -13.4744    1.6536    0.3180 H   0  0  0  0  0  0  0  0  0  0  0  0
  -12.9175    1.8948    1.9727 H   0  0  0  0  0  0  0  0  0  0  0  0
  -13.2954    0.2117    1.3627 H   0  0  0  0  0  0  0  0  0  0  0  0
   -9.7952    1.3297   -2.6099 H   0  0  0  0  0  0  0  0  0  0  0  0
   -7.3589    1.2933   -2.9806 H   0  0  0  0  0  0  0  0  0  0  0  0
   -1.4529   -1.8196    0.9350 H   0  0  0  0  0  0  0  0  0  0  0  0
    0.9838   -1.9987    1.3869 H   0  0  0  0  0  0  0  0  0  0  0  0
    2.8701   -2.5546    0.7818 H   0  0  0  0  0  0  0  0  0  0  0  0
    5.2544   -2.8301    0.9333 H   0  0  0  0  0  0  0  0  0  0  0  0
  1  2  1  0
  2  3  1  0
  3  4  1  0
  3  5  1  0
  3  6  1  0
  6  7  2  0
  7  8  1  0
  8  9  2  0
  9 10  1  0
 10 11  2  0
 10 12  1  0
 12 13  1  0
 13 14  1  0
 12 15  1  0
 15 16  1  0
 12 17  1  0
 17 18  2  0
 18 19  1  0
 19 20  1  0
 20 21  2  0
 21 22  1  0
 22 23  2  0
 23 24  1  0
 24 25  2  0
 25 26  1  0
 26 27  2  0
 27 28  1  0
 28 29  2  0
 28 30  1  0
 30 31  1  0
 31 32  1  0
 30 33  1  0
 33 34  1  0
 30 35  1  0
 35 36  2  0
 36 37  1  0
 37 38  1  0
 38 39  1  0
 38 40  1  0
 38 41  1  0
 41 42  1  0
 37 43  2  0
 43 44  1  0
 44 45  2  0
 23 46  1  0
 46 47  2  0
 19 48  2  0
 48 49  1  0
 49 50  2  0
 11  6  1  0
 50 17  1  0
 50  9  1  0
 47 20  1  0
 29 24  1  0
 45 35  1  0
 45 27  1  0
  1 51  1  0
  1 52  1  0
  1 53  1  0
  2 54  1  0
  2 55  1  0
  4 56  1  0
  4 57  1  0
  4 58  1  0
  5 59  1  0
  5 60  1  0
  5 61  1  0
  7 62  1  0
  8 63  1  0
 11 64  1  0
 13 65  1  0
 13 66  1  0
 14 67  1  0
 14 68  1  0
 14 69  1  0
 15 70  1  0
 15 71  1  0
 16 72  1  0
 16 73  1  0
 16 74  1  0
 18 75  1  0
 21 76  1  0
 22 77  1  0
 25 78  1  0
 26 79  1  0
 29 80  1  0
 31 81  1  0
 31 82  1  0
 32 83  1  0
 32 84  1  0
 32 85  1  0
 33 86  1  0
 33 87  1  0
 34 88  1  0
 34 89  1  0
 34 90  1  0
 36 91  1  0
 39 92  1  0
 39 93  1  0
 39 94  1  0
 40 95  1  0
 40 96  1  0
 40 97  1  0
 41 98  1  0
 41 99  1  0
 42100  1  0
 42101  1  0
 42102  1  0
 43103  1  0
 44104  1  0
 46105  1  0
 47106  1  0
 48107  1  0
 49108  1  0
M  END
