
     RDKit          3D

 90 96  0  0  0  0  0  0  0  0999 V2000
   -6.3459   -0.9691    0.1652 C   0  0  0  0  0  0  0  0  0  0  0  0
   -5.1729   -1.8524   -0.0987 C   0  0  0  0  0  0  0  0  0  0  0  0
   -5.0653   -2.8046    1.0900 C   0  0  0  0  0  0  0  0  0  0  0  0
   -5.4842   -2.6820   -1.3673 C   0  0  0  0  0  0  0  0  0  0  0  0
   -3.8868   -1.1851   -0.3343 C   0  0  0  0  0  0  0  0  0  0  0  0
   -2.6806   -1.8848   -0.6056 C   0  0  0  0  0  0  0  0  0  0  0  0
   -2.3394   -3.2396   -0.5350 C   0  0  0  0  0  0  0  0  0  0  0  0
   -1.1899   -3.6770    0.1605 C   0  0  0  0  0  0  0  0  0  0  0  0
   -0.0067   -2.9600    0.3976 C   0  0  0  0  0  0  0  0  0  0  0  0
    0.1894   -1.6844    0.7397 N   0  0  0  0  0  0  0  0  0  0  0  0
    1.4870   -1.4130    0.6142 C   0  0  0  0  0  0  0  0  0  0  0  0
    2.2106   -2.5211    0.2037 C   0  0  0  0  0  0  0  0  0  0  0  0
    3.5607   -2.4519   -0.0957 C   0  0  0  0  0  0  0  0  0  0  0  0
    4.2267   -1.2297   -0.0045 C   0  0  0  0  0  0  0  0  0  0  0  0
    3.5297   -0.1022    0.3804 C   0  0  0  0  0  0  0  0  0  0  0  0
    3.8445    1.2656    0.3649 C   0  0  0  0  0  0  0  0  0  0  0  0
    5.1803    1.8261    0.0974 C   0  0  0  0  0  0  0  0  0  0  0  0
    5.2520    3.3127    0.1303 C   0  0  0  0  0  0  0  0  0  0  0  0
    5.6695    1.4109   -1.3042 C   0  0  0  0  0  0  0  0  0  0  0  0
    6.1415    1.2494    1.1460 C   0  0  0  0  0  0  0  0  0  0  0  0
    2.6643    1.9474    0.6502 C   0  0  0  0  0  0  0  0  0  0  0  0
    2.3007    3.3036    0.6048 C   0  0  0  0  0  0  0  0  0  0  0  0
    1.1652    3.7374   -0.1107 C   0  0  0  0  0  0  0  0  0  0  0  0
   -0.0195    3.0183   -0.3557 C   0  0  0  0  0  0  0  0  0  0  0  0
   -0.2087    1.7410   -0.6922 N   0  0  0  0  0  0  0  0  0  0  0  0
   -1.5074    1.4668   -0.5795 C   0  0  0  0  0  0  0  0  0  0  0  0
   -2.2274    2.5795   -0.1847 C   0  0  0  0  0  0  0  0  0  0  0  0
   -3.5784    2.5134    0.0975 C   0  0  0  0  0  0  0  0  0  0  0  0
   -4.2576    1.3002    0.0110 C   0  0  0  0  0  0  0  0  0  0  0  0
   -3.5663    0.1573   -0.3572 C   0  0  0  0  0  0  0  0  0  0  0  0
   -2.2276    0.2998   -0.6394 C   0  0  0  0  0  0  0  0  0  0  0  0
   -1.7992   -0.9356   -0.7734 N   0  0  0  0  0  0  0  0  0  0  0  0
   -1.3005    3.5966   -0.0354 C   0  0  0  0  0  0  0  0  0  0  0  0
   -1.4857    5.0219    0.3331 C   0  0  0  0  0  0  0  0  0  0  0  0
   -2.8890    5.3946    0.6175 C   0  0  0  0  0  0  0  0  0  0  0  0
   -1.0365    5.9053   -0.8568 C   0  0  0  0  0  0  0  0  0  0  0  0
   -0.6176    5.3782    1.5361 C   0  0  0  0  0  0  0  0  0  0  0  0
    1.7698    0.9965    0.8241 N   0  0  0  0  0  0  0  0  0  0  0  0
    2.2026   -0.2387    0.6743 C   0  0  0  0  0  0  0  0  0  0  0  0
    1.2734   -3.5336    0.0606 C   0  0  0  0  0  0  0  0  0  0  0  0
    1.4586   -4.9543   -0.3110 C   0  0  0  0  0  0  0  0  0  0  0  0
    0.9881   -5.8162    0.8738 C   0  0  0  0  0  0  0  0  0  0  0  0
    0.6319   -5.3027   -1.5454 C   0  0  0  0  0  0  0  0  0  0  0  0
    2.8642   -5.3352   -0.5662 C   0  0  0  0  0  0  0  0  0  0  0  0
   -7.3037   -1.6194    0.2217 H   0  0  0  0  0  0  0  0  0  0  0  0
   -6.3373   -0.4953    1.1500 H   0  0  0  0  0  0  0  0  0  0  0  0
   -6.6059   -0.3028   -0.6928 H   0  0  0  0  0  0  0  0  0  0  0  0
   -4.3174   -2.4741    1.8267 H   0  0  0  0  0  0  0  0  0  0  0  0
   -6.0386   -2.8702    1.6179 H   0  0  0  0  0  0  0  0  0  0  0  0
   -4.8579   -3.8148    0.6803 H   0  0  0  0  0  0  0  0  0  0  0  0
   -4.7489   -2.4630   -2.1667 H   0  0  0  0  0  0  0  0  0  0  0  0
   -6.4712   -2.4263   -1.7536 H   0  0  0  0  0  0  0  0  0  0  0  0
   -5.4026   -3.7583   -1.1404 H   0  0  0  0  0  0  0  0  0  0  0  0
   -3.0130   -3.9126   -1.0172 H   0  0  0  0  0  0  0  0  0  0  0  0
   -1.2754   -4.7155    0.5128 H   0  0  0  0  0  0  0  0  0  0  0  0
   -0.5554   -0.9878    1.1965 H   0  0  0  0  0  0  0  0  0  0  0  0
    4.1492   -3.2745   -0.4008 H   0  0  0  0  0  0  0  0  0  0  0  0
    5.2609   -1.1985   -0.2347 H   0  0  0  0  0  0  0  0  0  0  0  0
    5.2795    3.6906    1.1712 H   0  0  0  0  0  0  0  0  0  0  0  0
    6.2730    3.6340   -0.2689 H   0  0  0  0  0  0  0  0  0  0  0  0
    4.5570    3.8174   -0.5470 H   0  0  0  0  0  0  0  0  0  0  0  0
    5.6084    2.2857   -2.0172 H   0  0  0  0  0  0  0  0  0  0  0  0
    5.0400    0.6394   -1.7461 H   0  0  0  0  0  0  0  0  0  0  0  0
    6.7482    1.1786   -1.2429 H   0  0  0  0  0  0  0  0  0  0  0  0
    6.2288    1.9669    1.9657 H   0  0  0  0  0  0  0  0  0  0  0  0
    7.1050    0.9625    0.6815 H   0  0  0  0  0  0  0  0  0  0  0  0
    5.6829    0.3301    1.5583 H   0  0  0  0  0  0  0  0  0  0  0  0
    2.9546    3.9574    1.1306 H   0  0  0  0  0  0  0  0  0  0  0  0
    1.2458    4.7773   -0.4792 H   0  0  0  0  0  0  0  0  0  0  0  0
    0.5376    1.0421   -1.1402 H   0  0  0  0  0  0  0  0  0  0  0  0
   -4.1759    3.3434    0.3885 H   0  0  0  0  0  0  0  0  0  0  0  0
   -5.2892    1.2987    0.2338 H   0  0  0  0  0  0  0  0  0  0  0  0
   -3.2908    4.9974    1.5593 H   0  0  0  0  0  0  0  0  0  0  0  0
   -3.5550    5.3543   -0.2672 H   0  0  0  0  0  0  0  0  0  0  0  0
   -2.9216    6.5414    0.8383 H   0  0  0  0  0  0  0  0  0  0  0  0
   -0.2670    6.6270   -0.5433 H   0  0  0  0  0  0  0  0  0  0  0  0
   -0.7577    5.2501   -1.6933 H   0  0  0  0  0  0  0  0  0  0  0  0
   -1.8831    6.5244   -1.2353 H   0  0  0  0  0  0  0  0  0  0  0  0
    0.1514    6.0953    1.1951 H   0  0  0  0  0  0  0  0  0  0  0  0
   -0.1170    4.4777    1.9185 H   0  0  0  0  0  0  0  0  0  0  0  0
   -1.2210    5.8915    2.3026 H   0  0  0  0  0  0  0  0  0  0  0  0
    0.2531   -6.5271    0.5102 H   0  0  0  0  0  0  0  0  0  0  0  0
    0.6949   -5.1952    1.7360 H   0  0  0  0  0  0  0  0  0  0  0  0
    1.8399   -6.4463    1.2692 H   0  0  0  0  0  0  0  0  0  0  0  0
   -0.2036   -5.9543   -1.2414 H   0  0  0  0  0  0  0  0  0  0  0  0
    1.2577   -5.8238   -2.2880 H   0  0  0  0  0  0  0  0  0  0  0  0
    0.2786   -4.3590   -2.0173 H   0  0  0  0  0  0  0  0  0  0  0  0
    3.5383   -5.2473    0.2927 H   0  0  0  0  0  0  0  0  0  0  0  0
    3.3104   -4.9752   -1.5001 H   0  0  0  0  0  0  0  0  0  0  0  0
    2.8969   -6.4906   -0.7440 H   0  0  0  0  0  0  0  0  0  0  0  0
  1  2  1  0
  2  3  1  0
  2  4  1  0
  2  5  1  0
  5  6  1  0
  6  7  2  0
  7  8  1  0
  8  9  2  0
  9 10  1  0
 10 11  1  0
 11 12  1  0
 12 13  1  0
 13 14  2  0
 14 15  1  0
 15 16  2  0
 16 17  1  0
 17 18  1  0
 17 19  1  0
 17 20  1  0
 16 21  1  0
 21 22  1  0
 22 23  2  0
 23 24  1  0
 24 25  1  0
 25 26  1  0
 26 27  2  0
 27 28  1  0
 28 29  2  0
 29 30  1  0
 30 31  1  0
 31 32  2  0
 27 33  1  0
 33 34  1  0
 34 35  1  0
 34 36  1  0
 34 37  1  0
 21 38  2  0
 38 39  1  0
 12 40  2  0
 40 41  1  0
 41 42  1  0
 41 43  1  0
 41 44  1  0
 30  5  2  0
 32  6  1  0
 40  9  1  0
 39 11  2  0
 39 15  1  0
 33 24  2  0
 31 26  1  0
  1 45  1  0
  1 46  1  0
  1 47  1  0
  3 48  1  0
  3 49  1  0
  3 50  1  0
  4 51  1  0
  4 52  1  0
  4 53  1  0
  7 54  1  0
  8 55  1  0
 10 56  1  0
 13 57  1  0
 14 58  1  0
 18 59  1  0
 18 60  1  0
 18 61  1  0
 19 62  1  0
 19 63  1  0
 19 64  1  0
 20 65  1  0
 20 66  1  0
 20 67  1  0
 22 68  1  0
 23 69  1  0
 25 70  1  0
 28 71  1  0
 29 72  1  0
 35 73  1  0
 35 74  1  0
 35 75  1  0
 36 76  1  0
 36 77  1  0
 36 78  1  0
 37 79  1  0
 37 80  1  0
 37 81  1  0
 42 82  1  0
 42 83  1  0
 42 84  1  0
 43 85  1  0
 43 86  1  0
 43 87  1  0
 44 88  1  0
 44 89  1  0
 44 90  1  0
M  END
