
     RDKit          3D

 44 46  0  0  0  0  0  0  0  0999 V2000
   -7.6692    0.2405    2.1536 C   0  0  0  0  0  0  0  0  0  0  0  0
   -7.0734   -0.5260    1.0856 N   0  0  0  0  0  0  0  0  0  0  0  0
   -7.8991   -1.2939    0.2021 C   0  0  0  0  0  0  0  0  0  0  0  0
   -5.6477   -0.4929    0.9344 C   0  0  0  0  0  0  0  0  0  0  0  0
   -5.0281    0.5033    0.1896 C   0  0  0  0  0  0  0  0  0  0  0  0
   -3.6646    0.5278    0.0756 C   0  0  0  0  0  0  0  0  0  0  0  0
   -2.8796   -0.4557    0.7085 C   0  0  0  0  0  0  0  0  0  0  0  0
   -1.4614   -0.3210    0.5206 C   0  0  0  0  0  0  0  0  0  0  0  0
   -0.2583   -0.1865    0.3546 C   0  0  0  0  0  0  0  0  0  0  0  0
    1.1519   -0.0098    0.1496 C   0  0  0  0  0  0  0  0  0  0  0  0
    1.9947    0.2383    1.2010 C   0  0  0  0  0  0  0  0  0  0  0  0
    3.3074    0.3827    0.8814 C   0  0  0  0  0  0  0  0  0  0  0  0
    3.8320    0.3002   -0.3754 C   0  0  0  0  0  0  0  0  0  0  0  0
    5.2598    0.4082   -0.5918 C   0  0  0  0  0  0  0  0  0  0  0  0
    6.1012    0.4168    0.4865 N   0  0  0  0  0  0  0  0  0  0  0  0
    7.3917    0.5489    0.0855 C   0  0  0  0  0  0  0  0  0  0  0  0
    8.4714    0.6133    0.9838 C   0  0  0  0  0  0  0  0  0  0  0  0
    9.4008    0.6832    1.7572 N   0  0  0  0  0  0  0  0  0  0  0  0
    7.3230    0.6198   -1.2651 C   0  0  0  0  0  0  0  0  0  0  0  0
    8.4627    0.7628   -2.1379 C   0  0  0  0  0  0  0  0  0  0  0  0
    9.3815    0.8835   -2.8671 N   0  0  0  0  0  0  0  0  0  0  0  0
    6.0161    0.5323   -1.6527 N   0  0  0  0  0  0  0  0  0  0  0  0
    5.5982    0.5945   -3.0376 C   0  0  0  0  0  0  0  0  0  0  0  0
    2.9738    0.0464   -1.4577 C   0  0  0  0  0  0  0  0  0  0  0  0
    1.6204   -0.1036   -1.1227 C   0  0  0  0  0  0  0  0  0  0  0  0
   -3.4672   -1.4555    1.4509 C   0  0  0  0  0  0  0  0  0  0  0  0
   -4.8591   -1.4337    1.5359 C   0  0  0  0  0  0  0  0  0  0  0  0
   -6.8963    0.8038    2.7212 H   0  0  0  0  0  0  0  0  0  0  0  0
   -8.1299   -0.4928    2.8758 H   0  0  0  0  0  0  0  0  0  0  0  0
   -8.4675    0.9326    1.7905 H   0  0  0  0  0  0  0  0  0  0  0  0
   -8.0814   -2.3087    0.6801 H   0  0  0  0  0  0  0  0  0  0  0  0
   -7.3902   -1.4493   -0.7913 H   0  0  0  0  0  0  0  0  0  0  0  0
   -8.8862   -0.8312    0.0613 H   0  0  0  0  0  0  0  0  0  0  0  0
   -5.6389    1.2547   -0.3025 H   0  0  0  0  0  0  0  0  0  0  0  0
   -3.1670    1.2929   -0.5164 H   0  0  0  0  0  0  0  0  0  0  0  0
    1.6155    0.3053    2.1930 H   0  0  0  0  0  0  0  0  0  0  0  0
    3.9885    0.5896    1.7273 H   0  0  0  0  0  0  0  0  0  0  0  0
    5.3105   -0.3897   -3.4422 H   0  0  0  0  0  0  0  0  0  0  0  0
    4.8020    1.3740   -3.1975 H   0  0  0  0  0  0  0  0  0  0  0  0
    6.4961    0.9404   -3.6613 H   0  0  0  0  0  0  0  0  0  0  0  0
    3.3004   -0.0488   -2.4425 H   0  0  0  0  0  0  0  0  0  0  0  0
    0.9566   -0.3183   -1.9632 H   0  0  0  0  0  0  0  0  0  0  0  0
   -2.8392   -2.1995    1.9167 H   0  0  0  0  0  0  0  0  0  0  0  0
   -5.3518   -2.2125    2.1025 H   0  0  0  0  0  0  0  0  0  0  0  0
  1  2  1  0
  2  3  1  0
  2  4  1  0
  4  5  2  0
  5  6  1  0
  6  7  2  0
  7  8  1  0
  8  9  3  0
  9 10  1  0
 10 11  2  0
 11 12  1  0
 12 13  2  0
 13 14  1  0
 14 15  2  0
 15 16  1  0
 16 17  1  0
 17 18  3  0
 16 19  2  0
 19 20  1  0
 20 21  3  0
 19 22  1  0
 22 23  1  0
 13 24  1  0
 24 25  2  0
  7 26  1  0
 26 27  2  0
 27  4  1  0
 25 10  1  0
 22 14  1  0
  1 28  1  0
  1 29  1  0
  1 30  1  0
  3 31  1  0
  3 32  1  0
  3 33  1  0
  5 34  1  0
  6 35  1  0
 11 36  1  0
 12 37  1  0
 23 38  1  0
 23 39  1  0
 23 40  1  0
 24 41  1  0
 25 42  1  0
 26 43  1  0
 27 44  1  0
M  END
