
     RDKit          3D

 29 30  0  0  0  0  0  0  0  0999 V2000
    6.2669    0.3171   -0.8055 C   0  0  0  0  0  0  0  0  0  0  0  0
    5.4026   -0.7756   -0.9396 O   0  0  0  0  0  0  0  0  0  0  0  0
    4.0004   -0.6822   -0.7981 C   0  0  0  0  0  0  0  0  0  0  0  0
    3.4404    0.5193   -0.5303 C   0  0  0  0  0  0  0  0  0  0  0  0
    2.0972    0.6724   -0.3829 C   0  0  0  0  0  0  0  0  0  0  0  0
    1.2264   -0.4598   -0.5009 C   0  0  0  0  0  0  0  0  0  0  0  0
   -0.1226   -0.2684   -0.3002 C   0  0  0  0  0  0  0  0  0  0  0  0
   -1.4594   -0.0975   -0.0880 C   0  0  0  0  0  0  0  0  0  0  0  0
   -2.8070    0.0819    0.1168 C   0  0  0  0  0  0  0  0  0  0  0  0
   -3.7838   -0.9772   -0.1215 C   0  0  0  0  0  0  0  0  0  0  0  0
   -4.9931   -0.6060    0.4005 C   0  0  0  0  0  0  0  0  0  0  0  0
   -5.4980    0.3614    0.9886 C   0  0  0  0  0  0  0  0  0  0  0  0
   -6.7284    0.8103    1.5934 C   0  0  0  0  0  0  0  0  0  0  0  0
   -7.6896    1.1416    2.0711 N   0  0  0  0  0  0  0  0  0  0  0  0
   -4.4965    1.4677    1.2171 C   0  0  0  0  0  0  0  0  0  0  0  0
   -3.2568    1.1738    0.7424 C   0  0  0  0  0  0  0  0  0  0  0  0
    1.8407   -1.6541   -0.7671 C   0  0  0  0  0  0  0  0  0  0  0  0
    3.1859   -1.7773   -0.9173 C   0  0  0  0  0  0  0  0  0  0  0  0
    7.3266    0.1242   -1.0645 H   0  0  0  0  0  0  0  0  0  0  0  0
    5.8813    1.2467   -1.2239 H   0  0  0  0  0  0  0  0  0  0  0  0
    6.2577    0.5733    0.3375 H   0  0  0  0  0  0  0  0  0  0  0  0
    4.0203    1.4604   -0.4097 H   0  0  0  0  0  0  0  0  0  0  0  0
    1.6059    1.5808   -0.1220 H   0  0  0  0  0  0  0  0  0  0  0  0
   -3.4380   -1.8323   -0.6013 H   0  0  0  0  0  0  0  0  0  0  0  0
   -5.7958   -1.4680    0.1565 H   0  0  0  0  0  0  0  0  0  0  0  0
   -4.7862    2.3790    1.6925 H   0  0  0  0  0  0  0  0  0  0  0  0
   -2.4612    1.9900    0.8771 H   0  0  0  0  0  0  0  0  0  0  0  0
    1.1973   -2.5289   -0.8551 H   0  0  0  0  0  0  0  0  0  0  0  0
    3.5669   -2.7726   -1.1455 H   0  0  0  0  0  0  0  0  0  0  0  0
  1  2  1  0
  2  3  1  0
  3  4  2  0
  4  5  1  0
  5  6  2  0
  6  7  1  0
  7  8  3  0
  8  9  1  0
  9 10  2  0
 10 11  1  0
 11 12  2  0
 12 13  1  0
 13 14  3  0
 12 15  1  0
 15 16  2  0
  6 17  1  0
 17 18  2  0
 18  3  1  0
 16  9  1  0
  1 19  1  0
  1 20  1  0
  1 21  1  0
  4 22  1  0
  5 23  1  0
 10 24  1  0
 11 25  1  0
 15 26  1  0
 16 27  1  0
 17 28  1  0
 18 29  1  0
M  END
