
     RDKit          3D

 38 41  0  0  0  0  0  0  0  0999 V2000
   -7.1788    0.9519   -1.3251 C   0  0  0  0  0  0  0  0  0  0  0  0
   -6.8896   -0.1349   -0.4754 O   0  0  0  0  0  0  0  0  0  0  0  0
   -5.5597   -0.3821   -0.1695 C   0  0  0  0  0  0  0  0  0  0  0  0
   -5.2443   -1.4379    0.6590 C   0  0  0  0  0  0  0  0  0  0  0  0
   -3.9203   -1.7302    0.9986 C   0  0  0  0  0  0  0  0  0  0  0  0
   -2.9508   -0.9153    0.4670 C   0  0  0  0  0  0  0  0  0  0  0  0
   -1.5896   -0.9547    0.6181 C   0  0  0  0  0  0  0  0  0  0  0  0
   -1.0698    0.0870   -0.1253 C   0  0  0  0  0  0  0  0  0  0  0  0
    0.3597    0.3924   -0.2296 C   0  0  0  0  0  0  0  0  0  0  0  0
    1.3171   -0.3522    0.4202 C   0  0  0  0  0  0  0  0  0  0  0  0
    2.6718   -0.0564    0.3166 C   0  0  0  0  0  0  0  0  0  0  0  0
    3.6424   -0.7896    0.9589 C   0  0  0  0  0  0  0  0  0  0  0  0
    4.9908   -0.4939    0.8548 C   0  0  0  0  0  0  0  0  0  0  0  0
    5.3334    0.5846    0.0677 C   0  0  0  0  0  0  0  0  0  0  0  0
    6.6554    0.9669   -0.1045 O   0  0  0  0  0  0  0  0  0  0  0  0
    7.6597    0.2255    0.5471 C   0  0  0  0  0  0  0  0  0  0  0  0
    4.3747    1.3450   -0.5942 C   0  0  0  0  0  0  0  0  0  0  0  0
    3.0190    1.0213   -0.4695 C   0  0  0  0  0  0  0  0  0  0  0  0
    2.0951    1.7222   -1.0832 O   0  0  0  0  0  0  0  0  0  0  0  0
    0.8028    1.4513   -0.9929 C   0  0  0  0  0  0  0  0  0  0  0  0
   -0.0720    2.1337   -1.5882 O   0  0  0  0  0  0  0  0  0  0  0  0
   -2.0682    0.7180   -0.6926 O   0  0  0  0  0  0  0  0  0  0  0  0
   -3.2092    0.1486   -0.3625 C   0  0  0  0  0  0  0  0  0  0  0  0
   -4.5389    0.3972   -0.6695 C   0  0  0  0  0  0  0  0  0  0  0  0
   -6.8021    1.9007   -0.8548 H   0  0  0  0  0  0  0  0  0  0  0  0
   -6.6041    0.8141   -2.2514 H   0  0  0  0  0  0  0  0  0  0  0  0
   -8.2473    1.0608   -1.5431 H   0  0  0  0  0  0  0  0  0  0  0  0
   -6.0629   -2.0358    1.0394 H   0  0  0  0  0  0  0  0  0  0  0  0
   -3.7063   -2.5734    1.6569 H   0  0  0  0  0  0  0  0  0  0  0  0
   -0.9834   -1.6525    1.2012 H   0  0  0  0  0  0  0  0  0  0  0  0
    0.9952   -1.1863    1.0239 H   0  0  0  0  0  0  0  0  0  0  0  0
    3.3551   -1.6323    1.5722 H   0  0  0  0  0  0  0  0  0  0  0  0
    5.7627   -1.0566    1.3502 H   0  0  0  0  0  0  0  0  0  0  0  0
    7.8000   -0.7816    0.1472 H   0  0  0  0  0  0  0  0  0  0  0  0
    8.6411    0.7681    0.5460 H   0  0  0  0  0  0  0  0  0  0  0  0
    7.3685    0.1748    1.6298 H   0  0  0  0  0  0  0  0  0  0  0  0
    4.6328    2.1910   -1.2126 H   0  0  0  0  0  0  0  0  0  0  0  0
   -4.7797    1.2414   -1.3310 H   0  0  0  0  0  0  0  0  0  0  0  0
  1  2  1  0
  2  3  1  0
  3  4  2  0
  4  5  1  0
  5  6  2  0
  6  7  1  0
  7  8  2  0
  8  9  1  0
  9 10  2  0
 10 11  1  0
 11 12  2  0
 12 13  1  0
 13 14  2  0
 14 15  1  0
 15 16  1  0
 14 17  1  0
 17 18  2  0
 18 19  1  0
 19 20  1  0
 20 21  2  0
  8 22  1  0
 22 23  1  0
 23 24  2  0
 24  3  1  0
 23  6  1  0
 20  9  1  0
 18 11  1  0
  1 25  1  0
  1 26  1  0
  1 27  1  0
  4 28  1  0
  5 29  1  0
  7 30  1  0
 10 31  1  0
 12 32  1  0
 13 33  1  0
 16 34  1  0
 16 35  1  0
 16 36  1  0
 17 37  1  0
 24 38  1  0
M  END
