
     RDKit          3D

 24 25  0  0  0  0  0  0  0  0999 V2000
   -4.5385    0.2402   -0.0655 C   0  0  0  0  0  0  0  0  0  0  0  0
   -3.6704    1.2858    0.1906 C   0  0  0  0  0  0  0  0  0  0  0  0
   -2.3254    1.0066    0.3243 C   0  0  0  0  0  0  0  0  0  0  0  0
   -1.8088   -0.2716    0.2133 C   0  0  0  0  0  0  0  0  0  0  0  0
   -0.4063   -0.5278    0.3575 N   0  0  0  0  0  0  0  0  0  0  0  0
    0.3845    0.3052   -0.2257 N   0  0  0  0  0  0  0  0  0  0  0  0
    1.7919    0.1591   -0.1565 C   0  0  0  0  0  0  0  0  0  0  0  0
    2.6262    1.2287    0.0942 C   0  0  0  0  0  0  0  0  0  0  0  0
    3.9868    1.1130    0.1657 C   0  0  0  0  0  0  0  0  0  0  0  0
    4.5780   -0.1082   -0.0156 C   0  0  0  0  0  0  0  0  0  0  0  0
    3.7663   -1.1934   -0.2676 C   0  0  0  0  0  0  0  0  0  0  0  0
    2.3959   -1.0692   -0.3382 C   0  0  0  0  0  0  0  0  0  0  0  0
   -2.7058   -1.2881   -0.0425 C   0  0  0  0  0  0  0  0  0  0  0  0
   -4.0576   -1.0616   -0.1843 C   0  0  0  0  0  0  0  0  0  0  0  0
   -5.6111    0.4034   -0.1803 H   0  0  0  0  0  0  0  0  0  0  0  0
   -4.0607    2.3001    0.2812 H   0  0  0  0  0  0  0  0  0  0  0  0
   -1.6179    1.8064    0.5257 H   0  0  0  0  0  0  0  0  0  0  0  0
    2.1423    2.1883    0.2353 H   0  0  0  0  0  0  0  0  0  0  0  0
    4.5850    1.9920    0.3658 H   0  0  0  0  0  0  0  0  0  0  0  0
    5.6489   -0.2535    0.0308 H   0  0  0  0  0  0  0  0  0  0  0  0
    4.2343   -2.1661   -0.4121 H   0  0  0  0  0  0  0  0  0  0  0  0
    1.7910   -1.9251   -0.5346 H   0  0  0  0  0  0  0  0  0  0  0  0
   -2.3530   -2.3049   -0.1382 H   0  0  0  0  0  0  0  0  0  0  0  0
   -4.7756   -1.8592   -0.3868 H   0  0  0  0  0  0  0  0  0  0  0  0
  1  2  2  0
  2  3  1  0
  3  4  2  0
  4  5  1  0
  5  6  2  0
  6  7  1  0
  7  8  2  0
  8  9  1  0
  9 10  2  0
 10 11  1  0
 11 12  2  0
  4 13  1  0
 13 14  2  0
 14  1  1  0
 12  7  1  0
  1 15  1  0
  2 16  1  0
  3 17  1  0
  8 18  1  0
  9 19  1  0
 10 20  1  0
 11 21  1  0
 12 22  1  0
 13 23  1  0
 14 24  1  0
M  END
