
     RDKit          3D

 46 48  0  0  0  0  0  0  0  0999 V2000
    4.6184    0.7145   -0.4404 C   0  0  0  0  0  0  0  0  0  0  0  0
    3.4122    0.8290   -1.3143 C   0  0  0  0  0  0  0  0  0  0  0  0
    3.3132   -0.4268   -2.1552 C   0  0  0  0  0  0  0  0  0  0  0  0
    2.1376    1.0780   -0.5213 C   0  0  0  0  0  0  0  0  0  0  0  0
    1.9203   -0.0458    0.4145 C   0  0  0  0  0  0  0  0  0  0  0  0
    0.7722   -0.1281    1.3098 C   0  0  0  0  0  0  0  0  0  0  0  0
   -0.5604   -0.1418    0.8584 N   0  0  0  0  0  0  0  0  0  0  0  0
   -1.1828    1.1064    0.5003 C   0  0  0  0  0  0  0  0  0  0  0  0
   -0.4435    2.1903    0.8585 C   0  0  0  0  0  0  0  0  0  0  0  0
   -0.8824    3.4694    0.5834 C   0  0  0  0  0  0  0  0  0  0  0  0
   -2.0809    3.6781   -0.0600 C   0  0  0  0  0  0  0  0  0  0  0  0
   -2.8190    2.5657   -0.4147 C   0  0  0  0  0  0  0  0  0  0  0  0
   -2.4026    1.2852   -0.1512 C   0  0  0  0  0  0  0  0  0  0  0  0
   -3.3966    0.3277   -0.5957 C   0  0  0  0  0  0  0  0  0  0  0  0
   -3.6615   -0.8083    0.3427 C   0  0  0  0  0  0  0  0  0  0  0  0
   -2.5470   -1.7051    0.5555 C   0  0  0  0  0  0  0  0  0  0  0  0
   -2.9437   -3.0190    0.5014 C   0  0  0  0  0  0  0  0  0  0  0  0
   -2.0727   -4.0775    0.6360 C   0  0  0  0  0  0  0  0  0  0  0  0
   -0.7445   -3.8012    0.8331 C   0  0  0  0  0  0  0  0  0  0  0  0
   -0.3229   -2.4708    0.8911 C   0  0  0  0  0  0  0  0  0  0  0  0
   -1.2024   -1.4185    0.7569 C   0  0  0  0  0  0  0  0  0  0  0  0
    5.5159    0.8179   -1.0869 H   0  0  0  0  0  0  0  0  0  0  0  0
    4.6896    1.5209    0.3215 H   0  0  0  0  0  0  0  0  0  0  0  0
    4.7019   -0.2999    0.0265 H   0  0  0  0  0  0  0  0  0  0  0  0
    3.5771    1.6779   -2.0101 H   0  0  0  0  0  0  0  0  0  0  0  0
    2.2691   -0.7937   -2.2515 H   0  0  0  0  0  0  0  0  0  0  0  0
    3.7673   -0.2908   -3.1587 H   0  0  0  0  0  0  0  0  0  0  0  0
    3.8943   -1.2764   -1.6903 H   0  0  0  0  0  0  0  0  0  0  0  0
    2.3022    2.0808   -0.0515 H   0  0  0  0  0  0  0  0  0  0  0  0
    1.3372    1.2265   -1.2745 H   0  0  0  0  0  0  0  0  0  0  0  0
    2.0689   -0.9768   -0.2297 H   0  0  0  0  0  0  0  0  0  0  0  0
    2.9027   -0.1350    1.0029 H   0  0  0  0  0  0  0  0  0  0  0  0
    0.8279    0.6280    2.1832 H   0  0  0  0  0  0  0  0  0  0  0  0
    1.0297   -0.9749    2.0537 H   0  0  0  0  0  0  0  0  0  0  0  0
    0.4517    2.0825    1.3610 H   0  0  0  0  0  0  0  0  0  0  0  0
   -0.3171    4.3609    0.8544 H   0  0  0  0  0  0  0  0  0  0  0  0
   -2.4134    4.6843   -0.2704 H   0  0  0  0  0  0  0  0  0  0  0  0
   -3.7860    2.7312   -0.9333 H   0  0  0  0  0  0  0  0  0  0  0  0
   -4.3568    0.8436   -0.7863 H   0  0  0  0  0  0  0  0  0  0  0  0
   -3.0663   -0.0589   -1.5820 H   0  0  0  0  0  0  0  0  0  0  0  0
   -4.0272   -0.4267    1.3201 H   0  0  0  0  0  0  0  0  0  0  0  0
   -4.5079   -1.3877   -0.0822 H   0  0  0  0  0  0  0  0  0  0  0  0
   -4.0154   -3.2569    0.3421 H   0  0  0  0  0  0  0  0  0  0  0  0
   -2.4431   -5.0929    0.5851 H   0  0  0  0  0  0  0  0  0  0  0  0
    0.0010   -4.5954    0.9472 H   0  0  0  0  0  0  0  0  0  0  0  0
    0.6856   -2.2898    1.0211 H   0  0  0  0  0  0  0  0  0  0  0  0
  1  2  1  0
  2  3  1  0
  2  4  1  0
  4  5  1  0
  5  6  1  0
  6  7  1  0
  7  8  1  0
  8  9  2  0
  9 10  1  0
 10 11  2  0
 11 12  1  0
 12 13  2  0
 13 14  1  0
 14 15  1  0
 15 16  1  0
 16 17  2  0
 17 18  1  0
 18 19  2  0
 19 20  1  0
 20 21  2  0
 21  7  1  0
 13  8  1  0
 21 16  1  0
  1 22  1  0
  1 23  1  0
  1 24  1  0
  2 25  1  0
  3 26  1  0
  3 27  1  0
  3 28  1  0
  4 29  1  0
  4 30  1  0
  5 31  1  0
  5 32  1  0
  6 33  1  0
  6 34  1  0
  9 35  1  0
 10 36  1  0
 11 37  1  0
 12 38  1  0
 14 39  1  0
 14 40  1  0
 15 41  1  0
 15 42  1  0
 17 43  1  0
 18 44  1  0
 19 45  1  0
 20 46  1  0
M  END
