
     RDKit          3D

 30 31  0  0  0  0  0  0  0  0999 V2000
   -5.5544    3.3833    1.8899 C   0  0  0  0  0  0  0  0  0  0  0  0
   -4.4202    2.7334    1.4152 O   0  0  0  0  0  0  0  0  0  0  0  0
   -3.6246    1.9272    2.2206 C   0  0  0  0  0  0  0  0  0  0  0  0
   -3.9329    1.7785    3.4132 O   0  0  0  0  0  0  0  0  0  0  0  0
   -2.4711    1.3145    1.5707 C   0  0  0  0  0  0  0  0  0  0  0  0
   -1.6489    0.4609    2.2757 C   0  0  0  0  0  0  0  0  0  0  0  0
   -0.5617   -0.1268    1.6945 C   0  0  0  0  0  0  0  0  0  0  0  0
   -0.2189    0.1035    0.3524 C   0  0  0  0  0  0  0  0  0  0  0  0
    0.8995   -0.5068   -0.2476 C   0  0  0  0  0  0  0  0  0  0  0  0
    1.7897   -0.9934   -0.7337 C   0  0  0  0  0  0  0  0  0  0  0  0
    2.9814   -1.6704   -1.4062 C   0  0  0  0  0  0  0  0  0  0  0  0
    3.3941   -1.2277   -2.6292 C   0  0  0  0  0  0  0  0  0  0  0  0
    4.4590   -1.8479   -3.2998 C   0  0  0  0  0  0  0  0  0  0  0  0
    5.0606   -2.9111   -2.6818 C   0  0  0  0  0  0  0  0  0  0  0  0
    4.6256   -3.3536   -1.4303 C   0  0  0  0  0  0  0  0  0  0  0  0
    3.5640   -2.7187   -0.7762 C   0  0  0  0  0  0  0  0  0  0  0  0
   -1.0742    0.9698   -0.3120 C   0  0  0  0  0  0  0  0  0  0  0  0
   -2.1741    1.5715    0.2507 C   0  0  0  0  0  0  0  0  0  0  0  0
   -6.3219    2.6679    2.1709 H   0  0  0  0  0  0  0  0  0  0  0  0
   -5.3166    4.0745    2.7435 H   0  0  0  0  0  0  0  0  0  0  0  0
   -5.9739    4.0144    1.0726 H   0  0  0  0  0  0  0  0  0  0  0  0
   -1.8885    0.2692    3.2983 H   0  0  0  0  0  0  0  0  0  0  0  0
    0.0990   -0.7980    2.2128 H   0  0  0  0  0  0  0  0  0  0  0  0
    2.9448   -0.4053   -3.1242 H   0  0  0  0  0  0  0  0  0  0  0  0
    4.7672   -1.4856   -4.2504 H   0  0  0  0  0  0  0  0  0  0  0  0
    5.8838   -3.3946   -3.2028 H   0  0  0  0  0  0  0  0  0  0  0  0
    5.1446   -4.1856   -1.0032 H   0  0  0  0  0  0  0  0  0  0  0  0
    3.2376   -3.0690    0.1811 H   0  0  0  0  0  0  0  0  0  0  0  0
   -0.8504    1.1809   -1.3499 H   0  0  0  0  0  0  0  0  0  0  0  0
   -2.8188    2.2448   -0.3147 H   0  0  0  0  0  0  0  0  0  0  0  0
  1  2  1  0
  2  3  1  0
  3  4  2  0
  3  5  1  0
  5  6  2  0
  6  7  1  0
  7  8  2  0
  8  9  1  0
  9 10  3  0
 10 11  1  0
 11 12  2  0
 12 13  1  0
 13 14  2  0
 14 15  1  0
 15 16  2  0
  8 17  1  0
 17 18  2  0
 18  5  1  0
 16 11  1  0
  1 19  1  0
  1 20  1  0
  1 21  1  0
  6 22  1  0
  7 23  1  0
 12 24  1  0
 13 25  1  0
 14 26  1  0
 15 27  1  0
 16 28  1  0
 17 29  1  0
 18 30  1  0
M  END
