
     RDKit          3D

 91 96  0  0  0  0  0  0  0  0999 V2000
    4.7537    0.3344   -2.8141 C   0  0  0  0  0  0  0  0  0  0  0  0
    4.5445    1.2894   -1.6713 C   0  0  0  0  0  0  0  0  0  0  0  0
    3.1164    1.3007   -1.2493 C   0  0  0  0  0  0  0  0  0  0  0  0
    2.2691    2.3381   -1.4514 C   0  0  0  0  0  0  0  0  0  0  0  0
    2.6854    3.5647   -2.1204 C   0  0  0  0  0  0  0  0  0  0  0  0
    0.9777    1.9561   -0.9046 C   0  0  0  0  0  0  0  0  0  0  0  0
   -0.2110    2.6243   -0.7053 C   0  0  0  0  0  0  0  0  0  0  0  0
   -0.2089    3.9859   -1.0924 C   0  0  0  0  0  0  0  0  0  0  0  0
   -0.9886    5.0168   -0.9269 C   0  0  0  0  0  0  0  0  0  0  0  0
   -0.7759    6.3652   -1.4637 C   0  0  0  0  0  0  0  0  0  0  0  0
   -1.7488    7.3257   -1.1611 C   0  0  0  0  0  0  0  0  0  0  0  0
   -1.5799    8.5996   -1.6519 C   0  0  0  0  0  0  0  0  0  0  0  0
   -0.4899    8.9530   -2.4254 C   0  0  0  0  0  0  0  0  0  0  0  0
   -0.3739   10.2906   -2.9038 N   0  0  0  0  0  4  0  0  0  0  0  0
    0.6301   10.5679   -3.6018 O   0  0  0  0  0  0  0  0  0  0  0  0
   -1.2814   11.2614   -2.6449 O   0  0  0  0  0  1  0  0  0  0  0  0
    0.4518    7.9956   -2.7098 C   0  0  0  0  0  0  0  0  0  0  0  0
    0.3039    6.6857   -2.2210 C   0  0  0  0  0  0  0  0  0  0  0  0
   -1.3676    1.9056   -0.1771 C   0  0  0  0  0  0  0  0  0  0  0  0
   -2.7374    2.2021   -0.1867 C   0  0  0  0  0  0  0  0  0  0  0  0
   -3.4425    3.3830   -0.7035 C   0  0  0  0  0  0  0  0  0  0  0  0
   -3.4780    1.0785    0.1841 C   0  0  0  0  0  0  0  0  0  0  0  0
   -4.9703    1.0100    0.3186 C   0  0  0  0  0  0  0  0  0  0  0  0
   -5.4166    1.7029    1.5923 C   0  0  0  0  0  0  0  0  0  0  0  0
   -2.5719    0.0751    0.4167 C   0  0  0  0  0  0  0  0  0  0  0  0
   -2.9991   -1.2629    0.7890 C   0  0  0  0  0  0  0  0  0  0  0  0
   -2.3482   -2.2788    1.2484 C   0  0  0  0  0  0  0  0  0  0  0  0
   -2.9427   -3.5941    1.5772 C   0  0  0  0  0  0  0  0  0  0  0  0
   -4.2669   -3.8910    1.4234 C   0  0  0  0  0  0  0  0  0  0  0  0
   -4.7679   -5.1598    1.7555 C   0  0  0  0  0  0  0  0  0  0  0  0
   -3.9546   -6.1547    2.2473 C   0  0  0  0  0  0  0  0  0  0  0  0
   -4.4563   -7.4122    2.5753 O   0  0  0  0  0  0  0  0  0  0  0  0
   -3.7276   -8.4821    3.0761 C   0  0  0  0  0  0  0  0  0  0  0  0
   -2.6209   -5.8517    2.4011 C   0  0  0  0  0  0  0  0  0  0  0  0
   -2.1381   -4.6007    2.0714 C   0  0  0  0  0  0  0  0  0  0  0  0
   -1.3506    0.6008    0.1909 N   0  0  0  0  0  0  0  0  0  0  0  0
   -0.0195   -0.1012    0.2848 B   0  0  0  0  0  4  0  0  0  0  0  0
    0.3827   -0.4217    1.6549 F   0  0  0  0  0  0  0  0  0  0  0  0
   -0.0641   -1.3845   -0.4583 F   0  0  0  0  0  0  0  0  0  0  0  0
    1.1151    0.6798   -0.3920 N   0  0  0  0  0  4  0  0  0  0  0  0
    2.3690    0.2744   -0.5812 C   0  0  0  0  0  0  0  0  0  0  0  0
    2.7837   -1.0545   -0.1094 C   0  0  0  0  0  0  0  0  0  0  0  0
    3.9432   -1.6156   -0.1793 C   0  0  0  0  0  0  0  0  0  0  0  0
    4.2708   -2.9613    0.3212 C   0  0  0  0  0  0  0  0  0  0  0  0
    5.5630   -3.4502    0.1879 C   0  0  0  0  0  0  0  0  0  0  0  0
    5.9509   -4.6935    0.6253 C   0  0  0  0  0  0  0  0  0  0  0  0
    4.9846   -5.5028    1.2363 C   0  0  0  0  0  0  0  0  0  0  0  0
    5.3742   -6.7468    1.6736 O   0  0  0  0  0  0  0  0  0  0  0  0
    4.5595   -7.6889    2.3014 C   0  0  0  0  0  0  0  0  0  0  0  0
    3.7018   -5.0554    1.3850 C   0  0  0  0  0  0  0  0  0  0  0  0
    3.3563   -3.7840    0.9242 C   0  0  0  0  0  0  0  0  0  0  0  0
    4.7710    0.8720   -3.7912 H   0  0  0  0  0  0  0  0  0  0  0  0
    3.9770   -0.4649   -2.8393 H   0  0  0  0  0  0  0  0  0  0  0  0
    5.7409   -0.1730   -2.6998 H   0  0  0  0  0  0  0  0  0  0  0  0
    5.1497    0.9904   -0.7658 H   0  0  0  0  0  0  0  0  0  0  0  0
    4.8726    2.3175   -1.9459 H   0  0  0  0  0  0  0  0  0  0  0  0
    3.7120    3.4543   -2.6060 H   0  0  0  0  0  0  0  0  0  0  0  0
    2.0599    3.7195   -3.0329 H   0  0  0  0  0  0  0  0  0  0  0  0
    2.7503    4.4619   -1.5056 H   0  0  0  0  0  0  0  0  0  0  0  0
    0.6262    4.3062   -1.7563 H   0  0  0  0  0  0  0  0  0  0  0  0
   -1.7604    4.8923   -0.1950 H   0  0  0  0  0  0  0  0  0  0  0  0
   -2.6133    7.0791   -0.5573 H   0  0  0  0  0  0  0  0  0  0  0  0
   -2.3124    9.3949   -1.4457 H   0  0  0  0  0  0  0  0  0  0  0  0
    1.3060    8.2421   -3.3071 H   0  0  0  0  0  0  0  0  0  0  0  0
    1.0828    5.9945   -2.4860 H   0  0  0  0  0  0  0  0  0  0  0  0
   -3.0557    3.7700   -1.6403 H   0  0  0  0  0  0  0  0  0  0  0  0
   -3.6145    4.1259    0.0647 H   0  0  0  0  0  0  0  0  0  0  0  0
   -4.5483    3.0935   -0.9633 H   0  0  0  0  0  0  0  0  0  0  0  0
   -5.5109    1.4568   -0.5213 H   0  0  0  0  0  0  0  0  0  0  0  0
   -5.2740   -0.0402    0.4040 H   0  0  0  0  0  0  0  0  0  0  0  0
   -5.0357    1.0934    2.4385 H   0  0  0  0  0  0  0  0  0  0  0  0
   -4.9661    2.7048    1.7056 H   0  0  0  0  0  0  0  0  0  0  0  0
   -6.5205    1.7047    1.6711 H   0  0  0  0  0  0  0  0  0  0  0  0
   -4.0840   -1.4880    0.6478 H   0  0  0  0  0  0  0  0  0  0  0  0
   -1.3128   -2.1842    1.4470 H   0  0  0  0  0  0  0  0  0  0  0  0
   -4.9380   -3.1390    1.0406 H   0  0  0  0  0  0  0  0  0  0  0  0
   -5.8264   -5.3590    1.6194 H   0  0  0  0  0  0  0  0  0  0  0  0
   -2.6543   -8.4823    2.8988 H   0  0  0  0  0  0  0  0  0  0  0  0
   -4.1667   -9.4215    2.6737 H   0  0  0  0  0  0  0  0  0  0  0  0
   -3.9420   -8.5321    4.1852 H   0  0  0  0  0  0  0  0  0  0  0  0
   -1.9354   -6.5993    2.7858 H   0  0  0  0  0  0  0  0  0  0  0  0
   -1.0745   -4.3736    2.1988 H   0  0  0  0  0  0  0  0  0  0  0  0
    2.0171   -1.6758    0.3769 H   0  0  0  0  0  0  0  0  0  0  0  0
    4.7499   -1.0906   -0.6159 H   0  0  0  0  0  0  0  0  0  0  0  0
    6.3036   -2.8254   -0.2822 H   0  0  0  0  0  0  0  0  0  0  0  0
    6.9564   -5.0302    0.5027 H   0  0  0  0  0  0  0  0  0  0  0  0
    3.8205   -7.1783    2.9410 H   0  0  0  0  0  0  0  0  0  0  0  0
    5.1705   -8.4024    2.9121 H   0  0  0  0  0  0  0  0  0  0  0  0
    3.9810   -8.3143    1.5901 H   0  0  0  0  0  0  0  0  0  0  0  0
    2.9680   -5.6835    1.8543 H   0  0  0  0  0  0  0  0  0  0  0  0
    2.3423   -3.4355    1.0437 H   0  0  0  0  0  0  0  0  0  0  0  0
  1  2  1  0
  2  3  1  0
  3  4  2  0
  4  5  1  0
  4  6  1  0
  6  7  2  0
  7  8  1  0
  8  9  2  0
  9 10  1  0
 10 11  2  0
 11 12  1  0
 12 13  2  0
 13 14  1  0
 14 15  2  0
 14 16  1  0
 13 17  1  0
 17 18  2  0
  7 19  1  0
 19 20  2  0
 20 21  1  0
 20 22  1  0
 22 23  1  0
 23 24  1  0
 22 25  2  0
 25 26  1  0
 26 27  2  0
 27 28  1  0
 28 29  2  0
 29 30  1  0
 30 31  2  0
 31 32  1  0
 32 33  1  0
 31 34  1  0
 34 35  2  0
 25 36  1  0
 36 37  1  0
 37 38  1  0
 37 39  1  0
 37 40  1  0
 40 41  2  0
 41 42  1  0
 42 43  2  0
 43 44  1  0
 44 45  2  0
 45 46  1  0
 46 47  2  0
 47 48  1  0
 48 49  1  0
 47 50  1  0
 50 51  2  0
 41  3  1  0
 51 44  1  0
 40  6  1  0
 18 10  1  0
 36 19  1  0
 35 28  1  0
  1 52  1  0
  1 53  1  0
  1 54  1  0
  2 55  1  0
  2 56  1  0
  5 57  1  0
  5 58  1  0
  5 59  1  0
  8 60  1  0
  9 61  1  0
 11 62  1  0
 12 63  1  0
 17 64  1  0
 18 65  1  0
 21 66  1  0
 21 67  1  0
 21 68  1  0
 23 69  1  0
 23 70  1  0
 24 71  1  0
 24 72  1  0
 24 73  1  0
 26 74  1  0
 27 75  1  0
 29 76  1  0
 30 77  1  0
 33 78  1  0
 33 79  1  0
 33 80  1  0
 34 81  1  0
 35 82  1  0
 42 83  1  0
 43 84  1  0
 45 85  1  0
 46 86  1  0
 49 87  1  0
 49 88  1  0
 49 89  1  0
 50 90  1  0
 51 91  1  0
M  CHG  4  14   1  16  -1  37  -1  40   1
M  END
