
     RDKit          3D

 66 72  0  0  0  0  0  0  0  0999 V2000
    9.0892    0.2725    0.0999 C   0  0  0  0  0  0  0  0  0  0  0  0
    8.9807   -0.1263    1.4030 C   0  0  0  0  0  0  0  0  0  0  0  0
    7.6309   -0.2899    1.6744 C   0  0  0  0  0  0  0  0  0  0  0  0
    6.9302    0.0011    0.5666 N   0  0  0  0  0  0  0  0  0  0  0  0
    5.5023   -0.0321    0.3995 C   0  0  0  0  0  0  0  0  0  0  0  0
    4.7374    0.9748    0.9509 C   0  0  0  0  0  0  0  0  0  0  0  0
    3.3839    0.9306    0.7853 C   0  0  0  0  0  0  0  0  0  0  0  0
    2.8133   -0.1057    0.0796 C   0  0  0  0  0  0  0  0  0  0  0  0
    1.3454   -0.1197   -0.0804 C   0  0  0  0  0  0  0  0  0  0  0  0
    0.6866    1.1100   -0.1561 C   0  0  0  0  0  0  0  0  0  0  0  0
   -0.6683    1.1747   -0.2881 C   0  0  0  0  0  0  0  0  0  0  0  0
   -1.3546    2.4565   -0.3509 C   0  0  0  0  0  0  0  0  0  0  0  0
   -0.7728    3.5701   -0.9178 C   0  0  0  0  0  0  0  0  0  0  0  0
   -1.4245    4.7999   -0.9550 C   0  0  0  0  0  0  0  0  0  0  0  0
   -2.6828    4.9478   -0.4226 C   0  0  0  0  0  0  0  0  0  0  0  0
   -3.4007    6.1854   -0.4184 N   0  0  0  0  0  0  0  0  0  0  0  0
   -2.9242    7.3230    0.1394 C   0  0  0  0  0  0  0  0  0  0  0  0
   -3.8521    8.3503   -0.0138 C   0  0  0  0  0  0  0  0  0  0  0  0
   -4.9284    7.8088   -0.6903 C   0  0  0  0  0  0  0  0  0  0  0  0
   -4.6095    6.4896   -0.9160 C   0  0  0  0  0  0  0  0  0  0  0  0
   -3.2651    3.8371    0.1434 C   0  0  0  0  0  0  0  0  0  0  0  0
   -2.6287    2.6161    0.1851 C   0  0  0  0  0  0  0  0  0  0  0  0
   -1.3713   -0.0047   -0.3454 C   0  0  0  0  0  0  0  0  0  0  0  0
   -0.7074   -1.2346   -0.2689 C   0  0  0  0  0  0  0  0  0  0  0  0
   -1.4582   -2.4777   -0.3202 C   0  0  0  0  0  0  0  0  0  0  0  0
   -2.6359   -2.6052   -1.0556 C   0  0  0  0  0  0  0  0  0  0  0  0
   -3.3170   -3.8012   -1.0539 C   0  0  0  0  0  0  0  0  0  0  0  0
   -2.8710   -4.8905   -0.3425 C   0  0  0  0  0  0  0  0  0  0  0  0
   -3.5446   -6.1403   -0.3049 N   0  0  0  0  0  0  0  0  0  0  0  0
   -4.0307   -6.9097   -1.2765 C   0  0  0  0  0  0  0  0  0  0  0  0
   -4.6147   -8.0561   -0.7458 C   0  0  0  0  0  0  0  0  0  0  0  0
   -4.4689   -7.9656    0.6106 C   0  0  0  0  0  0  0  0  0  0  0  0
   -3.8098   -6.7822    0.8588 C   0  0  0  0  0  0  0  0  0  0  0  0
   -1.6968   -4.7392    0.3809 C   0  0  0  0  0  0  0  0  0  0  0  0
   -1.0071   -3.5651    0.3928 C   0  0  0  0  0  0  0  0  0  0  0  0
    0.6625   -1.3094   -0.1353 C   0  0  0  0  0  0  0  0  0  0  0  0
    3.5347   -1.1211   -0.4814 C   0  0  0  0  0  0  0  0  0  0  0  0
    4.9216   -1.0651   -0.3052 C   0  0  0  0  0  0  0  0  0  0  0  0
    7.8012    0.3435   -0.3959 C   0  0  0  0  0  0  0  0  0  0  0  0
   10.0135    0.4922   -0.4391 H   0  0  0  0  0  0  0  0  0  0  0  0
    9.7906   -0.2886    2.1095 H   0  0  0  0  0  0  0  0  0  0  0  0
    7.2091   -0.5978    2.6122 H   0  0  0  0  0  0  0  0  0  0  0  0
    5.2292    1.7780    1.5043 H   0  0  0  0  0  0  0  0  0  0  0  0
    2.7481    1.6845    1.1937 H   0  0  0  0  0  0  0  0  0  0  0  0
    1.2311    2.0485   -0.1138 H   0  0  0  0  0  0  0  0  0  0  0  0
    0.2081    3.5324   -1.3547 H   0  0  0  0  0  0  0  0  0  0  0  0
   -0.9676    5.6816   -1.4033 H   0  0  0  0  0  0  0  0  0  0  0  0
   -1.9613    7.4420    0.6401 H   0  0  0  0  0  0  0  0  0  0  0  0
   -3.8043    9.3693    0.3032 H   0  0  0  0  0  0  0  0  0  0  0  0
   -5.8525    8.3266   -0.9888 H   0  0  0  0  0  0  0  0  0  0  0  0
   -5.2228    5.7513   -1.4259 H   0  0  0  0  0  0  0  0  0  0  0  0
   -4.2723    3.9650    0.5675 H   0  0  0  0  0  0  0  0  0  0  0  0
   -3.1392    1.7838    0.6408 H   0  0  0  0  0  0  0  0  0  0  0  0
   -2.4535   -0.0010   -0.4517 H   0  0  0  0  0  0  0  0  0  0  0  0
   -3.0095   -1.7670   -1.6240 H   0  0  0  0  0  0  0  0  0  0  0  0
   -4.2254   -3.8939   -1.6251 H   0  0  0  0  0  0  0  0  0  0  0  0
   -3.9784   -6.6729   -2.3377 H   0  0  0  0  0  0  0  0  0  0  0  0
   -5.0962   -8.8770   -1.2421 H   0  0  0  0  0  0  0  0  0  0  0  0
   -4.7864   -8.6508    1.3793 H   0  0  0  0  0  0  0  0  0  0  0  0
   -3.5474   -6.4297    1.8516 H   0  0  0  0  0  0  0  0  0  0  0  0
   -1.3271   -5.5923    0.9504 H   0  0  0  0  0  0  0  0  0  0  0  0
   -0.0899   -3.5283    0.9884 H   0  0  0  0  0  0  0  0  0  0  0  0
    1.2023   -2.2492   -0.0746 H   0  0  0  0  0  0  0  0  0  0  0  0
    3.0684   -1.9228   -1.0302 H   0  0  0  0  0  0  0  0  0  0  0  0
    5.5286   -1.8587   -0.7393 H   0  0  0  0  0  0  0  0  0  0  0  0
    7.5299    0.6250   -1.3846 H   0  0  0  0  0  0  0  0  0  0  0  0
  1  2  1  0
  2  3  2  0
  3  4  1  0
  4  5  1  0
  5  6  2  0
  6  7  1  0
  7  8  2  0
  8  9  1  0
  9 10  2  0
 10 11  1  0
 11 12  1  0
 12 13  2  0
 13 14  1  0
 14 15  2  0
 15 16  1  0
 16 17  1  0
 17 18  2  0
 18 19  1  0
 19 20  2  0
 15 21  1  0
 21 22  2  0
 11 23  2  0
 23 24  1  0
 24 25  1  0
 25 26  2  0
 26 27  1  0
 27 28  2  0
 28 29  1  0
 29 30  1  0
 30 31  2  0
 31 32  1  0
 32 33  2  0
 28 34  1  0
 34 35  2  0
 24 36  2  0
  8 37  1  0
 37 38  2  0
  4 39  1  0
 39  1  2  0
 38  5  1  0
 36  9  1  0
 22 12  1  0
 35 25  1  0
 20 16  1  0
 33 29  1  0
  1 40  1  0
  2 41  1  0
  3 42  1  0
  6 43  1  0
  7 44  1  0
 10 45  1  0
 13 46  1  0
 14 47  1  0
 17 48  1  0
 18 49  1  0
 19 50  1  0
 20 51  1  0
 21 52  1  0
 22 53  1  0
 23 54  1  0
 26 55  1  0
 27 56  1  0
 30 57  1  0
 31 58  1  0
 32 59  1  0
 33 60  1  0
 34 61  1  0
 35 62  1  0
 36 63  1  0
 37 64  1  0
 38 65  1  0
 39 66  1  0
M  END
