
     RDKit          3D

 49 54  0  0  0  0  0  0  0  0999 V2000
    0.1137    4.4946   -3.1279 F   0  0  0  0  0  0  0  0  0  0  0  0
    0.6470    4.4815   -1.8549 C   0  0  0  0  0  0  0  0  0  0  0  0
    1.9554    4.9113   -1.8381 F   0  0  0  0  0  0  0  0  0  0  0  0
   -0.0771    5.3148   -1.0207 F   0  0  0  0  0  0  0  0  0  0  0  0
    0.5760    3.0883   -1.3194 C   0  0  0  0  0  0  0  0  0  0  0  0
    1.6395    2.2908   -0.9707 C   0  0  0  0  0  0  0  0  0  0  0  0
    1.1613    1.0573   -0.5224 C   0  0  0  0  0  0  0  0  0  0  0  0
   -0.1711    1.1694   -0.6159 N   0  0  0  0  0  0  0  0  0  0  0  0
   -0.5248    2.3517   -1.0840 N   0  0  0  0  0  0  0  0  0  0  0  0
   -0.8240   -0.1185   -0.0714 B   0  0  0  0  0  4  0  0  0  0  0  0
   -1.4456    0.2514    1.3484 C   0  0  0  0  0  0  0  0  0  0  0  0
   -1.4264   -0.6496    2.3675 C   0  0  0  0  0  0  0  0  0  0  0  0
   -1.9439   -0.2946    3.6299 C   0  0  0  0  0  0  0  0  0  0  0  0
   -2.4626    0.9768    3.7923 C   0  0  0  0  0  0  0  0  0  0  0  0
   -2.4794    1.8825    2.7572 C   0  0  0  0  0  0  0  0  0  0  0  0
   -1.9683    1.5256    1.5209 C   0  0  0  0  0  0  0  0  0  0  0  0
   -1.9248   -0.5367   -1.0499 C   0  0  0  0  0  0  0  0  0  0  0  0
   -3.1095   -1.1224   -0.5988 C   0  0  0  0  0  0  0  0  0  0  0  0
   -4.1289   -1.4807   -1.4303 C   0  0  0  0  0  0  0  0  0  0  0  0
   -4.0534   -1.2787   -2.8203 C   0  0  0  0  0  0  0  0  0  0  0  0
   -2.8551   -0.6918   -3.2482 C   0  0  0  0  0  0  0  0  0  0  0  0
   -1.8411   -0.3362   -2.4169 C   0  0  0  0  0  0  0  0  0  0  0  0
    0.3640   -1.0169    0.0895 N   0  0  0  0  0  4  0  0  0  0  0  0
    0.4822   -2.3127    0.4232 C   0  0  0  0  0  0  0  0  0  0  0  0
    1.6995   -2.9497    0.6077 C   0  0  0  0  0  0  0  0  0  0  0  0
    2.8614   -2.2372    0.4463 C   0  0  0  0  0  0  0  0  0  0  0  0
    4.0905   -2.8346    0.6540 C   0  0  0  0  0  0  0  0  0  0  0  0
    5.2658   -2.1158    0.5233 C   0  0  0  0  0  0  0  0  0  0  0  0
    5.1664   -0.7901    0.1785 C   0  0  0  0  0  0  0  0  0  0  0  0
    3.9385   -0.2004   -0.0286 C   0  0  0  0  0  0  0  0  0  0  0  0
    2.7524   -0.8829    0.0950 C   0  0  0  0  0  0  0  0  0  0  0  0
    1.5206   -0.2929   -0.0807 C   0  0  0  0  0  0  0  0  0  0  0  0
    2.6515    2.6207   -1.0514 H   0  0  0  0  0  0  0  0  0  0  0  0
   -1.0336   -1.6324    2.2480 H   0  0  0  0  0  0  0  0  0  0  0  0
   -1.9109   -1.0343    4.4093 H   0  0  0  0  0  0  0  0  0  0  0  0
   -2.8412    1.2345    4.7677 H   0  0  0  0  0  0  0  0  0  0  0  0
   -2.9080    2.8826    2.9373 H   0  0  0  0  0  0  0  0  0  0  0  0
   -1.9883    2.2389    0.7115 H   0  0  0  0  0  0  0  0  0  0  0  0
   -3.1711   -1.2812    0.4766 H   0  0  0  0  0  0  0  0  0  0  0  0
   -5.0408   -1.9338   -1.0636 H   0  0  0  0  0  0  0  0  0  0  0  0
   -4.8273   -1.5440   -3.4749 H   0  0  0  0  0  0  0  0  0  0  0  0
   -2.7860   -0.5207   -4.3167 H   0  0  0  0  0  0  0  0  0  0  0  0
   -0.9140    0.1115   -2.8004 H   0  0  0  0  0  0  0  0  0  0  0  0
   -0.3823   -2.9841    0.5499 H   0  0  0  0  0  0  0  0  0  0  0  0
    1.7861   -3.9868    0.8742 H   0  0  0  0  0  0  0  0  0  0  0  0
    4.1337   -3.8599    0.9190 H   0  0  0  0  0  0  0  0  0  0  0  0
    6.2233   -2.5986    0.6857 H   0  0  0  0  0  0  0  0  0  0  0  0
    6.0736   -0.2112    0.0828 H   0  0  0  0  0  0  0  0  0  0  0  0
    3.9372    0.8453   -0.2895 H   0  0  0  0  0  0  0  0  0  0  0  0
  1  2  1  0
  2  3  1  0
  2  4  1  0
  2  5  1  0
  5  6  1  0
  6  7  2  0
  7  8  1  0
  8  9  1  0
  8 10  1  0
 10 11  1  0
 11 12  2  0
 12 13  1  0
 13 14  2  0
 14 15  1  0
 15 16  2  0
 10 17  1  0
 17 18  2  0
 18 19  1  0
 19 20  2  0
 20 21  1  0
 21 22  2  0
 10 23  1  0
 23 24  2  0
 24 25  1  0
 25 26  2  0
 26 27  1  0
 27 28  2  0
 28 29  1  0
 29 30  2  0
 30 31  1  0
 31 32  2  0
  9  5  2  0
 16 11  1  0
 22 17  1  0
 32 23  1  0
 32  7  1  0
 31 26  1  0
  6 33  1  0
 12 34  1  0
 13 35  1  0
 14 36  1  0
 15 37  1  0
 16 38  1  0
 18 39  1  0
 19 40  1  0
 20 41  1  0
 21 42  1  0
 22 43  1  0
 24 44  1  0
 25 45  1  0
 27 46  1  0
 28 47  1  0
 29 48  1  0
 30 49  1  0
M  CHG  2  10  -1  23   1
M  END
