
     RDKit          3D

 42 46  0  0  0  0  0  0  0  0999 V2000
   -4.8640   -2.5812    1.0686 C   0  0  0  0  0  0  0  0  0  0  0  0
   -3.9209   -3.4734    0.6034 C   0  0  0  0  0  0  0  0  0  0  0  0
   -2.6381   -3.0704    0.2722 C   0  0  0  0  0  0  0  0  0  0  0  0
   -2.2811   -1.7640    0.4026 C   0  0  0  0  0  0  0  0  0  0  0  0
   -0.9415   -1.2972    0.0653 C   0  0  0  0  0  0  0  0  0  0  0  0
    0.1443   -1.9882   -0.4076 C   0  0  0  0  0  0  0  0  0  0  0  0
    1.2793   -1.3126   -0.6412 C   0  0  0  0  0  0  0  0  0  0  0  0
    2.4961   -1.8245   -1.1222 C   0  0  0  0  0  0  0  0  0  0  0  0
    3.5672   -0.9803   -1.3041 C   0  0  0  0  0  0  0  0  0  0  0  0
    4.7527   -1.5202   -1.7804 C   0  0  0  0  0  0  0  0  0  0  0  0
    5.8693   -0.7502   -1.9906 C   0  0  0  0  0  0  0  0  0  0  0  0
    5.8402    0.6107   -1.7276 C   0  0  0  0  0  0  0  0  0  0  0  0
    4.6512    1.1326   -1.2535 C   0  0  0  0  0  0  0  0  0  0  0  0
    3.5383    0.3722   -1.0427 C   0  0  0  0  0  0  0  0  0  0  0  0
    2.3482    0.8879   -0.5695 C   0  0  0  0  0  0  0  0  0  0  0  0
    1.2807    0.0269   -0.3919 C   0  0  0  0  0  0  0  0  0  0  0  0
   -0.3324    0.3268    0.1751 P   0  0  0  0  0  0  0  0  0  0  0  0
   -1.1482    1.8329    0.7145 C   0  0  0  0  0  0  0  0  0  0  0  0
   -1.1133    2.2218    2.0221 C   0  0  0  0  0  0  0  0  0  0  0  0
   -1.7587    3.4011    2.4133 C   0  0  0  0  0  0  0  0  0  0  0  0
   -2.4265    4.1684    1.4885 C   0  0  0  0  0  0  0  0  0  0  0  0
   -2.4639    3.7837    0.1812 C   0  0  0  0  0  0  0  0  0  0  0  0
   -1.8138    2.6000   -0.2005 C   0  0  0  0  0  0  0  0  0  0  0  0
   -3.2058   -0.8532    0.8654 C   0  0  0  0  0  0  0  0  0  0  0  0
   -4.5036   -1.2569    1.2013 C   0  0  0  0  0  0  0  0  0  0  0  0
   -5.8693   -2.9007    1.3275 H   0  0  0  0  0  0  0  0  0  0  0  0
   -4.1989   -4.5114    0.4980 H   0  0  0  0  0  0  0  0  0  0  0  0
   -1.8880   -3.7739   -0.0966 H   0  0  0  0  0  0  0  0  0  0  0  0
    0.0088   -3.0854   -0.5693 H   0  0  0  0  0  0  0  0  0  0  0  0
    2.6359   -2.8676   -1.3610 H   0  0  0  0  0  0  0  0  0  0  0  0
    4.8146   -2.6009   -2.0016 H   0  0  0  0  0  0  0  0  0  0  0  0
    6.7926   -1.1847   -2.3641 H   0  0  0  0  0  0  0  0  0  0  0  0
    6.7340    1.1843   -1.9038 H   0  0  0  0  0  0  0  0  0  0  0  0
    4.6344    2.2127   -1.0468 H   0  0  0  0  0  0  0  0  0  0  0  0
    2.2828    1.9382   -0.3529 H   0  0  0  0  0  0  0  0  0  0  0  0
   -0.6059    1.6667    2.8070 H   0  0  0  0  0  0  0  0  0  0  0  0
   -1.7389    3.7220    3.4496 H   0  0  0  0  0  0  0  0  0  0  0  0
   -2.9197    5.0872    1.8388 H   0  0  0  0  0  0  0  0  0  0  0  0
   -2.9916    4.3916   -0.5455 H   0  0  0  0  0  0  0  0  0  0  0  0
   -1.8916    2.3654   -1.2593 H   0  0  0  0  0  0  0  0  0  0  0  0
   -2.9457    0.1913    0.9777 H   0  0  0  0  0  0  0  0  0  0  0  0
   -5.2094   -0.5276    1.5608 H   0  0  0  0  0  0  0  0  0  0  0  0
  1  2  2  0
  2  3  1  0
  3  4  2  0
  4  5  1  0
  5  6  2  0
  6  7  1  0
  7  8  2  0
  8  9  1  0
  9 10  2  0
 10 11  1  0
 11 12  2  0
 12 13  1  0
 13 14  2  0
 14 15  1  0
 15 16  2  0
 16 17  1  0
 17 18  1  0
 18 19  2  0
 19 20  1  0
 20 21  2  0
 21 22  1  0
 22 23  2  0
  4 24  1  0
 24 25  2  0
 25  1  1  0
 17  5  1  0
 23 18  1  0
 16  7  1  0
 14  9  1  0
  1 26  1  0
  2 27  1  0
  3 28  1  0
  6 29  1  0
  8 30  1  0
 10 31  1  0
 11 32  1  0
 12 33  1  0
 13 34  1  0
 15 35  1  0
 19 36  1  0
 20 37  1  0
 21 38  1  0
 22 39  1  0
 23 40  1  0
 24 41  1  0
 25 42  1  0
M  END
