
     RDKit          3D

 43 46  0  0  0  0  0  0  0  0999 V2000
    6.8056   -2.1118    0.3873 C   0  0  0  0  0  0  0  0  0  0  0  0
    5.4093   -1.9616    0.4880 O   0  0  0  0  0  0  0  0  0  0  0  0
    4.7044   -0.9207   -0.0806 C   0  0  0  0  0  0  0  0  0  0  0  0
    5.3333    0.0621   -0.8006 C   0  0  0  0  0  0  0  0  0  0  0  0
    4.6577    1.1065   -1.3752 C   0  0  0  0  0  0  0  0  0  0  0  0
    3.2726    1.1277   -1.1925 C   0  0  0  0  0  0  0  0  0  0  0  0
    2.6165    0.1677   -0.4833 C   0  0  0  0  0  0  0  0  0  0  0  0
    1.1709    0.2001   -0.2969 C   0  0  0  0  0  0  0  0  0  0  0  0
    0.3454    1.1440   -0.7802 N   0  0  0  0  0  0  0  0  0  0  0  0
   -0.9200    0.8643   -0.4179 C   0  0  0  0  0  0  0  0  0  0  0  0
   -2.1496    1.5972   -0.7075 C   0  0  0  0  0  0  0  0  0  0  0  0
   -2.5433    1.7579   -2.0195 C   0  0  0  0  0  0  0  0  0  0  0  0
   -3.7090    2.4502   -2.3508 C   0  0  0  0  0  0  0  0  0  0  0  0
   -4.4980    2.9928   -1.3594 C   0  0  0  0  0  0  0  0  0  0  0  0
   -4.0969    2.8271   -0.0545 C   0  0  0  0  0  0  0  0  0  0  0  0
   -2.9371    2.1390    0.2858 C   0  0  0  0  0  0  0  0  0  0  0  0
   -0.8836   -0.3142    0.3298 C   0  0  0  0  0  0  0  0  0  0  0  0
   -2.0492   -0.9646    0.9169 C   0  0  0  0  0  0  0  0  0  0  0  0
   -3.0961   -1.4506    0.1632 C   0  0  0  0  0  0  0  0  0  0  0  0
   -4.2008   -2.0690    0.7322 C   0  0  0  0  0  0  0  0  0  0  0  0
   -4.2874   -2.2199    2.1010 C   0  0  0  0  0  0  0  0  0  0  0  0
   -3.2419   -1.7349    2.8575 C   0  0  0  0  0  0  0  0  0  0  0  0
   -2.1457   -1.1209    2.2893 C   0  0  0  0  0  0  0  0  0  0  0  0
    0.4132   -0.6736    0.3712 N   0  0  0  0  0  0  0  0  0  0  0  0
    3.3374   -0.8780    0.0857 C   0  0  0  0  0  0  0  0  0  0  0  0
    7.2199   -2.7655    1.1783 H   0  0  0  0  0  0  0  0  0  0  0  0
    7.0315   -2.4565   -0.6403 H   0  0  0  0  0  0  0  0  0  0  0  0
    7.3076   -1.1083    0.5145 H   0  0  0  0  0  0  0  0  0  0  0  0
    6.4041    0.0150   -0.9223 H   0  0  0  0  0  0  0  0  0  0  0  0
    5.1191    1.8894   -1.9429 H   0  0  0  0  0  0  0  0  0  0  0  0
    2.7050    1.9467   -1.6380 H   0  0  0  0  0  0  0  0  0  0  0  0
   -1.9617    1.3527   -2.8318 H   0  0  0  0  0  0  0  0  0  0  0  0
   -4.0375    2.5885   -3.3720 H   0  0  0  0  0  0  0  0  0  0  0  0
   -5.4207    3.5419   -1.6060 H   0  0  0  0  0  0  0  0  0  0  0  0
   -4.7170    3.2540    0.7318 H   0  0  0  0  0  0  0  0  0  0  0  0
   -2.6457    2.0245    1.3270 H   0  0  0  0  0  0  0  0  0  0  0  0
   -3.0842   -1.3619   -0.9038 H   0  0  0  0  0  0  0  0  0  0  0  0
   -5.0233   -2.4481    0.1061 H   0  0  0  0  0  0  0  0  0  0  0  0
   -5.1577   -2.7067    2.5382 H   0  0  0  0  0  0  0  0  0  0  0  0
   -3.3073   -1.8521    3.9327 H   0  0  0  0  0  0  0  0  0  0  0  0
   -1.3357   -0.7485    2.9182 H   0  0  0  0  0  0  0  0  0  0  0  0
    0.7539   -1.5294    0.8684 H   0  0  0  0  0  0  0  0  0  0  0  0
    2.8421   -1.6526    0.6529 H   0  0  0  0  0  0  0  0  0  0  0  0
  1  2  1  0
  2  3  1  0
  3  4  2  0
  4  5  1  0
  5  6  2  0
  6  7  1  0
  7  8  1  0
  8  9  2  0
  9 10  1  0
 10 11  1  0
 11 12  2  0
 12 13  1  0
 13 14  2  0
 14 15  1  0
 15 16  2  0
 10 17  2  0
 17 18  1  0
 18 19  2  0
 19 20  1  0
 20 21  2  0
 21 22  1  0
 22 23  2  0
 17 24  1  0
  7 25  2  0
 25  3  1  0
 24  8  1  0
 16 11  1  0
 23 18  1  0
  1 26  1  0
  1 27  1  0
  1 28  1  0
  4 29  1  0
  5 30  1  0
  6 31  1  0
 12 32  1  0
 13 33  1  0
 14 34  1  0
 15 35  1  0
 16 36  1  0
 19 37  1  0
 20 38  1  0
 21 39  1  0
 22 40  1  0
 23 41  1  0
 24 42  1  0
 25 43  1  0
M  END
