
     RDKit          3D

 66 74  0  0  0  0  0  0  0  0999 V2000
   -2.8136    4.2271   -0.3114 C   0  0  0  0  0  0  0  0  0  0  0  0
   -2.4305    2.8186   -0.1794 C   0  0  0  0  0  0  0  0  0  0  0  0
   -1.1873    2.3428   -0.1428 C   0  0  0  0  0  0  0  0  0  0  0  0
    0.0292    3.0093   -0.2153 C   0  0  0  0  0  0  0  0  0  0  0  0
    1.2119    2.2757   -0.1536 C   0  0  0  0  0  0  0  0  0  0  0  0
    2.5433    2.6116   -0.1953 C   0  0  0  0  0  0  0  0  0  0  0  0
    3.0754    3.9891   -0.3308 C   0  0  0  0  0  0  0  0  0  0  0  0
    3.2851    1.4712   -0.0915 C   0  0  0  0  0  0  0  0  0  0  0  0
    2.4582    0.4284    0.0142 N   0  0  0  0  0  0  0  0  0  0  0  0
    1.1888    0.9083   -0.0226 C   0  0  0  0  0  0  0  0  0  0  0  0
   -0.0510    0.2658    0.0477 C   0  0  0  0  0  0  0  0  0  0  0  0
   -1.2267    0.9829   -0.0125 C   0  0  0  0  0  0  0  0  0  0  0  0
   -2.4728    0.5412    0.0387 N   0  0  0  0  0  4  0  0  0  0  0  0
   -3.3259    1.6645   -0.0626 C   0  0  0  0  0  0  0  0  0  0  0  0
   -4.6409    1.5208   -0.0395 C   0  0  0  0  0  0  0  0  0  0  0  0
   -5.2573    0.1957    0.0917 C   0  0  0  0  0  0  0  0  0  0  0  0
   -6.5919   -0.2103    0.1401 C   0  0  0  0  0  0  0  0  0  0  0  0
   -7.7548    0.4991    0.0806 C   0  0  0  0  0  0  0  0  0  0  0  0
   -8.9667   -0.1713    0.1534 C   0  0  0  0  0  0  0  0  0  0  0  0
   -9.0376   -1.5408    0.2849 C   0  0  0  0  0  0  0  0  0  0  0  0
   -7.8471   -2.2350    0.3428 C   0  0  0  0  0  0  0  0  0  0  0  0
   -6.6307   -1.5771    0.2711 C   0  0  0  0  0  0  0  0  0  0  0  0
   -5.3312   -2.0098    0.3032 C   0  0  0  0  0  0  0  0  0  0  0  0
   -4.8868   -3.4288    0.4358 C   0  0  0  0  0  0  0  0  0  0  0  0
   -4.5181   -0.9013    0.1913 N   0  0  0  0  0  0  0  0  0  0  0  0
   -3.0186   -0.8683    0.1774 B   0  0  0  0  0  4  0  0  0  0  0  0
   -2.5005   -1.7219   -0.9060 F   0  0  0  0  0  0  0  0  0  0  0  0
   -2.4842   -1.4541    1.4282 F   0  0  0  0  0  0  0  0  0  0  0  0
    2.9239   -1.0154    0.1489 B   0  0  0  0  0  4  0  0  0  0  0  0
    2.2979   -1.5753    1.3306 F   0  0  0  0  0  0  0  0  0  0  0  0
    2.4314   -1.8073   -0.9899 F   0  0  0  0  0  0  0  0  0  0  0  0
    4.4261   -1.1243    0.1486 N   0  0  0  0  0  4  0  0  0  0  0  0
    5.1810   -2.1818    0.2443 C   0  0  0  0  0  0  0  0  0  0  0  0
    4.6997   -3.5778    0.3813 C   0  0  0  0  0  0  0  0  0  0  0  0
    6.5978   -1.7986    0.1975 C   0  0  0  0  0  0  0  0  0  0  0  0
    7.7778   -2.5070    0.2568 C   0  0  0  0  0  0  0  0  0  0  0  0
    8.9868   -1.8537    0.1857 C   0  0  0  0  0  0  0  0  0  0  0  0
    9.0103   -0.4816    0.0543 C   0  0  0  0  0  0  0  0  0  0  0  0
    7.8232    0.2122   -0.0036 C   0  0  0  0  0  0  0  0  0  0  0  0
    6.6127   -0.4268    0.0662 C   0  0  0  0  0  0  0  0  0  0  0  0
    5.2311    0.0333    0.0321 C   0  0  0  0  0  0  0  0  0  0  0  0
    4.7460    1.2467   -0.0805 C   0  0  0  0  0  0  0  0  0  0  0  0
   -2.0401    4.8313    0.2459 H   0  0  0  0  0  0  0  0  0  0  0  0
   -3.8224    4.3805    0.1360 H   0  0  0  0  0  0  0  0  0  0  0  0
   -2.7668    4.4994   -1.3803 H   0  0  0  0  0  0  0  0  0  0  0  0
    0.0860    4.0771   -0.3178 H   0  0  0  0  0  0  0  0  0  0  0  0
    3.4717    4.3975    0.6117 H   0  0  0  0  0  0  0  0  0  0  0  0
    2.3181    4.6304   -0.8153 H   0  0  0  0  0  0  0  0  0  0  0  0
    3.9376    3.9428   -1.0470 H   0  0  0  0  0  0  0  0  0  0  0  0
   -0.0933   -0.8199    0.1518 H   0  0  0  0  0  0  0  0  0  0  0  0
   -5.2633    2.3977   -0.1189 H   0  0  0  0  0  0  0  0  0  0  0  0
   -7.7147    1.5773   -0.0229 H   0  0  0  0  0  0  0  0  0  0  0  0
   -9.9004    0.3881    0.1066 H   0  0  0  0  0  0  0  0  0  0  0  0
   -9.9827   -2.0863    0.3438 H   0  0  0  0  0  0  0  0  0  0  0  0
   -7.8600   -3.3133    0.4460 H   0  0  0  0  0  0  0  0  0  0  0  0
   -5.1910   -3.9354   -0.5097 H   0  0  0  0  0  0  0  0  0  0  0  0
   -5.4367   -3.8697    1.2899 H   0  0  0  0  0  0  0  0  0  0  0  0
   -3.7947   -3.4956    0.5429 H   0  0  0  0  0  0  0  0  0  0  0  0
    4.6043   -3.9748   -0.6699 H   0  0  0  0  0  0  0  0  0  0  0  0
    3.6928   -3.6371    0.8539 H   0  0  0  0  0  0  0  0  0  0  0  0
    5.4274   -4.2173    0.9309 H   0  0  0  0  0  0  0  0  0  0  0  0
    7.7306   -3.5970    0.3614 H   0  0  0  0  0  0  0  0  0  0  0  0
    9.9187   -2.4364    0.2348 H   0  0  0  0  0  0  0  0  0  0  0  0
    9.9509    0.0532   -0.0036 H   0  0  0  0  0  0  0  0  0  0  0  0
    7.7884    1.3004   -0.1074 H   0  0  0  0  0  0  0  0  0  0  0  0
    5.3760    2.1312   -0.1696 H   0  0  0  0  0  0  0  0  0  0  0  0
  1  2  1  0
  2  3  2  0
  3  4  1  0
  4  5  2  0
  5  6  1  0
  6  7  1  0
  6  8  2  0
  8  9  1  0
  9 10  1  0
 10 11  2  0
 11 12  1  0
 12 13  2  0
 13 14  1  0
 14 15  2  0
 15 16  1  0
 16 17  2  0
 17 18  1  0
 18 19  2  0
 19 20  1  0
 20 21  2  0
 21 22  1  0
 22 23  2  0
 23 24  1  0
 23 25  1  0
 25 26  1  0
 26 27  1  0
 26 28  1  0
  9 29  1  0
 29 30  1  0
 29 31  1  0
 29 32  1  0
 32 33  2  0
 33 34  1  0
 33 35  1  0
 35 36  2  0
 36 37  1  0
 37 38  2  0
 38 39  1  0
 39 40  2  0
 40 41  1  0
 41 42  2  0
 14  2  1  0
 25 16  1  0
 41 32  1  0
 12  3  1  0
 26 13  1  0
 40 35  1  0
 10  5  1  0
 22 17  1  0
 42  8  1  0
  1 43  1  0
  1 44  1  0
  1 45  1  0
  4 46  1  0
  7 47  1  0
  7 48  1  0
  7 49  1  0
 11 50  1  0
 15 51  1  0
 18 52  1  0
 19 53  1  0
 20 54  1  0
 21 55  1  0
 24 56  1  0
 24 57  1  0
 24 58  1  0
 34 59  1  0
 34 60  1  0
 34 61  1  0
 36 62  1  0
 37 63  1  0
 38 64  1  0
 39 65  1  0
 42 66  1  0
M  CHG  4  13   1  26  -1  29  -1  32   1
M  END
