
     RDKit          3D

 47 50  0  0  0  0  0  0  0  0999 V2000
    2.8629   -0.7877   -0.0489 C   0  0  0  0  0  0  0  0  0  0  0  0
    1.7732   -0.0857    0.0960 C   0  0  0  0  0  0  0  0  0  0  0  0
    0.4593   -0.7199    0.1512 C   0  0  0  0  0  0  0  0  0  0  0  0
    0.2255   -2.0598    0.0620 N   0  0  0  0  0  0  0  0  0  0  0  0
   -1.0844   -2.2928    0.1492 C   0  0  0  0  0  0  0  0  0  0  0  0
   -1.7949   -3.5602    0.1044 C   0  0  0  0  0  0  0  0  0  0  0  0
   -1.0841   -4.7263   -0.0473 C   0  0  0  0  0  0  0  0  0  0  0  0
   -1.6906   -5.9761   -0.0991 C   0  0  0  0  0  0  0  0  0  0  0  0
   -3.0496   -6.0175    0.0076 C   0  0  0  0  0  0  0  0  0  0  0  0
   -3.7957   -4.8740    0.1604 C   0  0  0  0  0  0  0  0  0  0  0  0
   -3.1620   -3.6432    0.2084 C   0  0  0  0  0  0  0  0  0  0  0  0
   -1.6890   -1.1000    0.2945 N   0  0  0  0  0  0  0  0  0  0  0  0
   -0.7673   -0.1202    0.2990 C   0  0  0  0  0  0  0  0  0  0  0  0
   -0.9949    1.3277    0.4343 C   0  0  0  0  0  0  0  0  0  0  0  0
   -2.2030    1.8386    0.5734 C   0  0  0  0  0  0  0  0  0  0  0  0
   -2.4896    3.2572    0.7111 C   0  0  0  0  0  0  0  0  0  0  0  0
   -1.5363    4.2470    0.7138 C   0  0  0  0  0  0  0  0  0  0  0  0
   -1.9256    5.5756    0.8525 C   0  0  0  0  0  0  0  0  0  0  0  0
   -3.2471    5.9267    0.9879 C   0  0  0  0  0  0  0  0  0  0  0  0
   -4.2033    4.9420    0.9859 C   0  0  0  0  0  0  0  0  0  0  0  0
   -3.8051    3.6365    0.8482 C   0  0  0  0  0  0  0  0  0  0  0  0
    4.1811   -0.1821   -0.1068 C   0  0  0  0  0  0  0  0  0  0  0  0
    4.4450    1.1625   -0.0196 C   0  0  0  0  0  0  0  0  0  0  0  0
    5.7239    1.6837   -0.0811 C   0  0  0  0  0  0  0  0  0  0  0  0
    6.7952    0.8643   -0.2340 C   0  0  0  0  0  0  0  0  0  0  0  0
    6.5680   -0.4817   -0.3244 C   0  0  0  0  0  0  0  0  0  0  0  0
    5.3017   -0.9973   -0.2634 C   0  0  0  0  0  0  0  0  0  0  0  0
    2.7813   -1.8703   -0.1297 H   0  0  0  0  0  0  0  0  0  0  0  0
    1.8198    0.9781    0.1781 H   0  0  0  0  0  0  0  0  0  0  0  0
    0.0031   -4.7279   -0.1355 H   0  0  0  0  0  0  0  0  0  0  0  0
   -1.1328   -6.8948   -0.2185 H   0  0  0  0  0  0  0  0  0  0  0  0
   -3.5284   -6.9863   -0.0319 H   0  0  0  0  0  0  0  0  0  0  0  0
   -4.8851   -4.9277    0.2443 H   0  0  0  0  0  0  0  0  0  0  0  0
   -3.7631   -2.7440    0.3297 H   0  0  0  0  0  0  0  0  0  0  0  0
   -2.7089   -0.8955    0.3936 H   0  0  0  0  0  0  0  0  0  0  0  0
   -0.1605    2.0067    0.4215 H   0  0  0  0  0  0  0  0  0  0  0  0
   -3.0106    1.1102    0.5800 H   0  0  0  0  0  0  0  0  0  0  0  0
   -0.5091    3.9945    0.6102 H   0  0  0  0  0  0  0  0  0  0  0  0
   -1.1605    6.3528    0.8533 H   0  0  0  0  0  0  0  0  0  0  0  0
   -3.5379    6.9658    1.0953 H   0  0  0  0  0  0  0  0  0  0  0  0
   -5.2436    5.1917    1.0903 H   0  0  0  0  0  0  0  0  0  0  0  0
   -4.6054    2.8849    0.8524 H   0  0  0  0  0  0  0  0  0  0  0  0
    3.5859    1.8329    0.1042 H   0  0  0  0  0  0  0  0  0  0  0  0
    5.8042    2.7718    0.0003 H   0  0  0  0  0  0  0  0  0  0  0  0
    7.7984    1.2924   -0.2808 H   0  0  0  0  0  0  0  0  0  0  0  0
    7.4573   -1.1105   -0.4472 H   0  0  0  0  0  0  0  0  0  0  0  0
    5.1829   -2.0622   -0.3398 H   0  0  0  0  0  0  0  0  0  0  0  0
  1  2  2  0
  2  3  1  0
  3  4  1  0
  4  5  2  0
  5  6  1  0
  6  7  2  0
  7  8  1  0
  8  9  2  0
  9 10  1  0
 10 11  2  0
  5 12  1  0
 12 13  1  0
 13 14  1  0
 14 15  2  0
 15 16  1  0
 16 17  2  0
 17 18  1  0
 18 19  2  0
 19 20  1  0
 20 21  2  0
  1 22  1  0
 22 23  2  0
 23 24  1  0
 24 25  2  0
 25 26  1  0
 26 27  2  0
 13  3  2  0
 21 16  1  0
 27 22  1  0
 11  6  1  0
  1 28  1  0
  2 29  1  0
  7 30  1  0
  8 31  1  0
  9 32  1  0
 10 33  1  0
 11 34  1  0
 12 35  1  0
 14 36  1  0
 15 37  1  0
 17 38  1  0
 18 39  1  0
 19 40  1  0
 20 41  1  0
 21 42  1  0
 23 43  1  0
 24 44  1  0
 25 45  1  0
 26 46  1  0
 27 47  1  0
M  END
