
     RDKit          3D

 54 59  0  0  0  0  0  0  0  0999 V2000
    7.2117    1.1278   -1.1599 C   0  0  0  0  0  0  0  0  0  0  0  0
    5.7504    0.9390   -0.9414 C   0  0  0  0  0  0  0  0  0  0  0  0
    5.3014   -0.0024   -0.0280 C   0  0  0  0  0  0  0  0  0  0  0  0
    3.9587   -0.2108    0.2054 C   0  0  0  0  0  0  0  0  0  0  0  0
    2.9910    0.5107   -0.4623 C   0  0  0  0  0  0  0  0  0  0  0  0
    1.5732    0.2673   -0.2328 C   0  0  0  0  0  0  0  0  0  0  0  0
    1.1047   -0.9790   -0.2790 C   0  0  0  0  0  0  0  0  0  0  0  0
    1.8003   -2.2383   -0.5416 C   0  0  0  0  0  0  0  0  0  0  0  0
    0.8914   -3.1751   -0.4699 C   0  0  0  0  0  0  0  0  0  0  0  0
   -0.4434   -2.6097   -0.1602 C   0  0  0  0  0  0  0  0  0  0  0  0
   -1.6269   -3.4470   -0.0123 C   0  0  0  0  0  0  0  0  0  0  0  0
   -2.8732   -3.0307    0.3580 C   0  0  0  0  0  0  0  0  0  0  0  0
   -3.9639   -3.9169    0.4537 C   0  0  0  0  0  0  0  0  0  0  0  0
   -3.7727   -5.2439    0.1669 C   0  0  0  0  0  0  0  0  0  0  0  0
   -2.5374   -5.7123   -0.2101 C   0  0  0  0  0  0  0  0  0  0  0  0
   -1.5015   -4.8232   -0.2926 C   0  0  0  0  0  0  0  0  0  0  0  0
   -0.2589   -1.3151   -0.0578 N   0  0  0  0  0  4  0  0  0  0  0  0
   -1.2738   -0.2174    0.2605 B   0  0  0  0  0  4  0  0  0  0  0  0
   -2.2357   -0.2577   -0.7977 F   0  0  0  0  0  0  0  0  0  0  0  0
   -1.7545   -0.3866    1.6299 F   0  0  0  0  0  0  0  0  0  0  0  0
   -0.6609    1.1807    0.2466 N   0  0  0  0  0  0  0  0  0  0  0  0
    0.6332    1.3329    0.0377 C   0  0  0  0  0  0  0  0  0  0  0  0
    0.9175    2.6849    0.1011 C   0  0  0  0  0  0  0  0  0  0  0  0
   -0.2429    3.3264    0.3513 C   0  0  0  0  0  0  0  0  0  0  0  0
   -1.2809    2.3762    0.4500 C   0  0  0  0  0  0  0  0  0  0  0  0
   -2.6485    2.7736    0.7015 C   0  0  0  0  0  0  0  0  0  0  0  0
   -2.9723    4.1383    0.8142 C   0  0  0  0  0  0  0  0  0  0  0  0
   -4.2359    4.6006    1.0583 C   0  0  0  0  0  0  0  0  0  0  0  0
   -5.2785    3.7262    1.2090 C   0  0  0  0  0  0  0  0  0  0  0  0
   -5.0185    2.3940    1.1089 C   0  0  0  0  0  0  0  0  0  0  0  0
   -3.7001    1.9278    0.8551 C   0  0  0  0  0  0  0  0  0  0  0  0
    3.4432    1.4533   -1.3767 C   0  0  0  0  0  0  0  0  0  0  0  0
    4.7860    1.6613   -1.6090 C   0  0  0  0  0  0  0  0  0  0  0  0
    7.6588    0.1138   -1.2282 H   0  0  0  0  0  0  0  0  0  0  0  0
    7.6812    1.6007   -0.2476 H   0  0  0  0  0  0  0  0  0  0  0  0
    7.4347    1.7931   -1.9933 H   0  0  0  0  0  0  0  0  0  0  0  0
    6.0811   -0.5689    0.4948 H   0  0  0  0  0  0  0  0  0  0  0  0
    3.6709   -0.9653    0.9552 H   0  0  0  0  0  0  0  0  0  0  0  0
    2.8637   -2.3246   -0.7568 H   0  0  0  0  0  0  0  0  0  0  0  0
    1.0944   -4.2179   -0.6140 H   0  0  0  0  0  0  0  0  0  0  0  0
   -3.0949   -2.0274    0.6011 H   0  0  0  0  0  0  0  0  0  0  0  0
   -4.9095   -3.5277    0.7486 H   0  0  0  0  0  0  0  0  0  0  0  0
   -4.6068   -5.9465    0.2363 H   0  0  0  0  0  0  0  0  0  0  0  0
   -2.3707   -6.7509   -0.4387 H   0  0  0  0  0  0  0  0  0  0  0  0
   -0.5430   -5.2045   -0.5913 H   0  0  0  0  0  0  0  0  0  0  0  0
    1.8904    3.1896   -0.0189 H   0  0  0  0  0  0  0  0  0  0  0  0
   -0.3576    4.3991    0.4599 H   0  0  0  0  0  0  0  0  0  0  0  0
   -2.1826    4.8475    0.6996 H   0  0  0  0  0  0  0  0  0  0  0  0
   -4.4638    5.6509    1.1413 H   0  0  0  0  0  0  0  0  0  0  0  0
   -6.2809    4.0775    1.4026 H   0  0  0  0  0  0  0  0  0  0  0  0
   -5.8147    1.6968    1.2227 H   0  0  0  0  0  0  0  0  0  0  0  0
   -3.6237    0.8707    0.8013 H   0  0  0  0  0  0  0  0  0  0  0  0
    2.6960    2.0314   -1.9201 H   0  0  0  0  0  0  0  0  0  0  0  0
    5.0948    2.4076   -2.3317 H   0  0  0  0  0  0  0  0  0  0  0  0
  1  2  1  0
  2  3  2  0
  3  4  1  0
  4  5  2  0
  5  6  1  0
  6  7  2  0
  7  8  1  0
  8  9  2  0
  9 10  1  0
 10 11  1  0
 11 12  2  0
 12 13  1  0
 13 14  2  0
 14 15  1  0
 15 16  2  0
 10 17  2  0
 17 18  1  0
 18 19  1  0
 18 20  1  0
 18 21  1  0
 21 22  1  0
 22 23  2  0
 23 24  1  0
 24 25  2  0
 25 26  1  0
 26 27  2  0
 27 28  1  0
 28 29  2  0
 29 30  1  0
 30 31  2  0
  5 32  1  0
 32 33  2  0
 33  2  1  0
 22  6  1  0
 31 26  1  0
 17  7  1  0
 25 21  1  0
 16 11  1  0
  1 34  1  0
  1 35  1  0
  1 36  1  0
  3 37  1  0
  4 38  1  0
  8 39  1  0
  9 40  1  0
 12 41  1  0
 13 42  1  0
 14 43  1  0
 15 44  1  0
 16 45  1  0
 23 46  1  0
 24 47  1  0
 27 48  1  0
 28 49  1  0
 29 50  1  0
 30 51  1  0
 31 52  1  0
 32 53  1  0
 33 54  1  0
M  CHG  2  17   1  18  -1
M  END
