
     RDKit          3D

 34 36  0  0  0  0  0  0  0  0999 V2000
   -4.2992    1.5356   -0.8100 C   0  0  0  0  0  0  0  0  0  0  0  0
   -3.0035    0.8179   -0.5474 C   0  0  0  0  0  0  0  0  0  0  0  0
   -1.7943    1.4641   -0.6255 C   0  0  0  0  0  0  0  0  0  0  0  0
   -0.5896    0.8230   -0.3878 C   0  0  0  0  0  0  0  0  0  0  0  0
    0.5806    1.5106   -0.4788 N   0  0  0  0  0  0  0  0  0  0  0  0
    1.7050    0.8393   -0.2392 C   0  0  0  0  0  0  0  0  0  0  0  0
    2.9381    1.4778   -0.3140 C   0  0  0  0  0  0  0  0  0  0  0  0
    2.9630    2.7094   -0.6148 O   0  0  0  0  0  0  0  0  0  0  0  0
    4.0607    0.7860   -0.0695 N   0  0  0  0  0  0  0  0  0  0  0  0
    5.3484    1.4508   -0.1471 C   0  0  0  0  0  0  0  0  0  0  0  0
    3.9891   -0.5098    0.2440 C   0  0  0  0  0  0  0  0  0  0  0  0
    5.0725   -1.1211    0.4662 O   0  0  0  0  0  0  0  0  0  0  0  0
    2.8516   -1.2123    0.3409 N   0  0  0  0  0  0  0  0  0  0  0  0
    1.6881   -0.5598    0.1033 C   0  0  0  0  0  0  0  0  0  0  0  0
    0.5069   -1.1964    0.1811 N   0  0  0  0  0  0  0  0  0  0  0  0
    0.4660   -2.5974    0.5224 C   0  0  0  0  0  0  0  0  0  0  0  0
   -0.6320   -0.5163   -0.0617 C   0  0  0  0  0  0  0  0  0  0  0  0
   -1.8282   -1.2038    0.0274 C   0  0  0  0  0  0  0  0  0  0  0  0
   -3.0023   -0.5234   -0.2179 C   0  0  0  0  0  0  0  0  0  0  0  0
   -4.3086   -1.2336   -0.1306 C   0  0  0  0  0  0  0  0  0  0  0  0
   -4.7718    1.1904   -1.7305 H   0  0  0  0  0  0  0  0  0  0  0  0
   -4.9555    1.4588    0.0915 H   0  0  0  0  0  0  0  0  0  0  0  0
   -4.0580    2.6045   -0.9197 H   0  0  0  0  0  0  0  0  0  0  0  0
   -1.7446    2.5236   -0.8824 H   0  0  0  0  0  0  0  0  0  0  0  0
    5.2435    2.4614   -0.5939 H   0  0  0  0  0  0  0  0  0  0  0  0
    5.7471    1.5935    0.8810 H   0  0  0  0  0  0  0  0  0  0  0  0
    6.0940    0.8241   -0.6874 H   0  0  0  0  0  0  0  0  0  0  0  0
    0.2018   -3.2365   -0.3578 H   0  0  0  0  0  0  0  0  0  0  0  0
    1.4871   -2.9085    0.8172 H   0  0  0  0  0  0  0  0  0  0  0  0
   -0.1790   -2.8072    1.4000 H   0  0  0  0  0  0  0  0  0  0  0  0
   -1.7923   -2.2504    0.2867 H   0  0  0  0  0  0  0  0  0  0  0  0
   -4.8322   -0.9748    0.8342 H   0  0  0  0  0  0  0  0  0  0  0  0
   -4.1826   -2.3371   -0.2137 H   0  0  0  0  0  0  0  0  0  0  0  0
   -4.9694   -0.8824   -0.9389 H   0  0  0  0  0  0  0  0  0  0  0  0
  1  2  1  0
  2  3  2  0
  3  4  1  0
  4  5  1  0
  5  6  2  0
  6  7  1  0
  7  8  2  0
  7  9  1  0
  9 10  1  0
  9 11  1  0
 11 12  2  0
 11 13  1  0
 13 14  2  0
 14 15  1  0
 15 16  1  0
 15 17  1  0
 17 18  1  0
 18 19  2  0
 19 20  1  0
 19  2  1  0
 17  4  2  0
 14  6  1  0
  1 21  1  0
  1 22  1  0
  1 23  1  0
  3 24  1  0
 10 25  1  0
 10 26  1  0
 10 27  1  0
 16 28  1  0
 16 29  1  0
 16 30  1  0
 18 31  1  0
 20 32  1  0
 20 33  1  0
 20 34  1  0
M  END
