
     RDKit          3D

 44 46  0  0  0  0  0  0  0  0999 V2000
    6.1266    4.9332    0.4167 C   0  0  0  0  0  0  0  0  0  0  0  0
    5.3976    4.2188   -0.5321 O   0  0  0  0  0  0  0  0  0  0  0  0
    4.7280    3.0408   -0.4295 C   0  0  0  0  0  0  0  0  0  0  0  0
    4.6609    2.2806    0.7402 C   0  0  0  0  0  0  0  0  0  0  0  0
    3.9736    1.1132    0.7732 C   0  0  0  0  0  0  0  0  0  0  0  0
    3.3091    0.5848   -0.2862 C   0  0  0  0  0  0  0  0  0  0  0  0
    2.5555   -0.5948   -0.1857 C   0  0  0  0  0  0  0  0  0  0  0  0
    1.9426   -1.5896   -0.0976 C   0  0  0  0  0  0  0  0  0  0  0  0
    1.2234   -2.7885    0.0252 C   0  0  0  0  0  0  0  0  0  0  0  0
    2.1973   -3.9203    0.0120 C   0  0  0  0  0  0  0  0  0  0  0  0
    1.8169   -5.1957    0.1098 C   0  0  0  0  0  0  0  0  0  0  0  0
    0.4975   -5.4864    0.2281 C   0  0  0  0  0  0  0  0  0  0  0  0
   -0.4057   -4.5154    0.2486 C   0  0  0  0  0  0  0  0  0  0  0  0
   -0.0261   -3.0835    0.1405 C   0  0  0  0  0  0  0  0  0  0  0  0
   -1.1795   -2.3110    0.1595 C   0  0  0  0  0  0  0  0  0  0  0  0
   -2.1628   -1.6412    0.1944 C   0  0  0  0  0  0  0  0  0  0  0  0
   -3.3475   -0.8431    0.2604 C   0  0  0  0  0  0  0  0  0  0  0  0
   -4.0319   -0.3965   -0.8157 C   0  0  0  0  0  0  0  0  0  0  0  0
   -5.1630    0.3948   -0.5795 C   0  0  0  0  0  0  0  0  0  0  0  0
   -5.6109    0.7348    0.6559 C   0  0  0  0  0  0  0  0  0  0  0  0
   -6.7427    1.5142    0.8234 O   0  0  0  0  0  0  0  0  0  0  0  0
   -7.4291    1.9796   -0.3166 C   0  0  0  0  0  0  0  0  0  0  0  0
   -4.8988    0.2685    1.7719 C   0  0  0  0  0  0  0  0  0  0  0  0
   -3.8015   -0.4980    1.5419 C   0  0  0  0  0  0  0  0  0  0  0  0
    3.3829    1.3587   -1.4774 C   0  0  0  0  0  0  0  0  0  0  0  0
    4.0616    2.5209   -1.5284 C   0  0  0  0  0  0  0  0  0  0  0  0
    6.7254    4.2132    1.0475 H   0  0  0  0  0  0  0  0  0  0  0  0
    5.5068    5.5515    1.0780 H   0  0  0  0  0  0  0  0  0  0  0  0
    6.8476    5.6173   -0.0910 H   0  0  0  0  0  0  0  0  0  0  0  0
    5.1826    2.6635    1.6356 H   0  0  0  0  0  0  0  0  0  0  0  0
    3.9450    0.5307    1.7283 H   0  0  0  0  0  0  0  0  0  0  0  0
    3.2262   -3.6057   -0.0824 H   0  0  0  0  0  0  0  0  0  0  0  0
    2.5765   -5.9837    0.1039 H   0  0  0  0  0  0  0  0  0  0  0  0
    0.1573   -6.5362    0.3110 H   0  0  0  0  0  0  0  0  0  0  0  0
   -1.4459   -4.7114    0.3535 H   0  0  0  0  0  0  0  0  0  0  0  0
   -3.6995   -0.6694   -1.8045 H   0  0  0  0  0  0  0  0  0  0  0  0
   -5.7108    0.7412   -1.4368 H   0  0  0  0  0  0  0  0  0  0  0  0
   -6.6845    2.4291   -0.9960 H   0  0  0  0  0  0  0  0  0  0  0  0
   -8.1865    2.7570   -0.0050 H   0  0  0  0  0  0  0  0  0  0  0  0
   -7.9753    1.1724   -0.8246 H   0  0  0  0  0  0  0  0  0  0  0  0
   -5.2540    0.5458    2.7666 H   0  0  0  0  0  0  0  0  0  0  0  0
   -3.2483   -0.8592    2.4261 H   0  0  0  0  0  0  0  0  0  0  0  0
    2.8560    0.9626   -2.3354 H   0  0  0  0  0  0  0  0  0  0  0  0
    4.1074    3.1022   -2.4587 H   0  0  0  0  0  0  0  0  0  0  0  0
  1  2  1  0
  2  3  1  0
  3  4  2  0
  4  5  1  0
  5  6  2  0
  6  7  1  0
  7  8  3  0
  8  9  1  0
  9 10  2  0
 10 11  1  0
 11 12  2  0
 12 13  1  0
 13 14  2  0
 14 15  1  0
 15 16  3  0
 16 17  1  0
 17 18  2  0
 18 19  1  0
 19 20  2  0
 20 21  1  0
 21 22  1  0
 20 23  1  0
 23 24  2  0
  6 25  1  0
 25 26  2  0
 26  3  1  0
 14  9  1  0
 24 17  1  0
  1 27  1  0
  1 28  1  0
  1 29  1  0
  4 30  1  0
  5 31  1  0
 10 32  1  0
 11 33  1  0
 12 34  1  0
 13 35  1  0
 18 36  1  0
 19 37  1  0
 22 38  1  0
 22 39  1  0
 22 40  1  0
 23 41  1  0
 24 42  1  0
 25 43  1  0
 26 44  1  0
M  END
