
     RDKit          3D

 66 71  0  0  0  0  0  0  0  0999 V2000
   -2.5046    0.3674    2.4904 C   0  0  0  0  0  0  0  0  0  0  0  0
   -3.6966    0.0154    1.7158 C   0  0  0  0  0  0  0  0  0  0  0  0
   -4.2016    0.7489    0.5817 C   0  0  0  0  0  0  0  0  0  0  0  0
   -3.4015    0.9263   -0.6999 C   0  0  0  0  0  0  0  0  0  0  0  0
   -2.8857   -0.3261   -1.1274 N   0  0  0  0  0  0  0  0  0  0  0  0
   -3.7734   -1.2784   -1.6095 C   0  0  0  0  0  0  0  0  0  0  0  0
   -5.1093   -1.1911   -1.9223 C   0  0  0  0  0  0  0  0  0  0  0  0
   -5.7368   -2.3224   -2.3955 C   0  0  0  0  0  0  0  0  0  0  0  0
   -5.0677   -3.5120   -2.5579 C   0  0  0  0  0  0  0  0  0  0  0  0
   -3.7248   -3.5755   -2.2371 C   0  0  0  0  0  0  0  0  0  0  0  0
   -3.0852   -2.4473   -1.7623 C   0  0  0  0  0  0  0  0  0  0  0  0
   -1.7754   -2.2451   -1.3899 C   0  0  0  0  0  0  0  0  0  0  0  0
   -0.7099   -3.0924   -1.3473 C   0  0  0  0  0  0  0  0  0  0  0  0
    0.4859   -2.6237   -0.9347 C   0  0  0  0  0  0  0  0  0  0  0  0
    0.6021   -1.2923   -0.5730 C   0  0  0  0  0  0  0  0  0  0  0  0
    1.7358   -0.5746   -0.2537 C   0  0  0  0  0  0  0  0  0  0  0  0
    3.0542   -0.9984   -0.1099 C   0  0  0  0  0  0  0  0  0  0  0  0
    4.0412   -0.0893    0.1866 C   0  0  0  0  0  0  0  0  0  0  0  0
    5.4073   -0.5678    0.3329 C   0  0  0  0  0  0  0  0  0  0  0  0
    5.8157   -1.6478   -0.4189 C   0  0  0  0  0  0  0  0  0  0  0  0
    7.0918   -2.1601   -0.3363 C   0  0  0  0  0  0  0  0  0  0  0  0
    7.9854   -1.5664    0.5307 C   0  0  0  0  0  0  0  0  0  0  0  0
    7.5677   -0.4891    1.2763 C   0  0  0  0  0  0  0  0  0  0  0  0
    8.4443    0.0987    2.1315 F   0  0  0  0  0  0  0  0  0  0  0  0
    6.3053    0.0311    1.2060 C   0  0  0  0  0  0  0  0  0  0  0  0
    3.6605    1.2132    0.3256 C   0  0  0  0  0  0  0  0  0  0  0  0
    2.3517    1.6422    0.1837 C   0  0  0  0  0  0  0  0  0  0  0  0
    1.3554    0.7213   -0.1131 C   0  0  0  0  0  0  0  0  0  0  0  0
   -0.0063    0.8472   -0.3272 N   0  0  0  0  0  0  0  0  0  0  0  0
   -0.5625    2.1490   -0.3817 C   0  0  0  0  0  0  0  0  0  0  0  0
   -1.0671    2.8436    0.7757 C   0  0  0  0  0  0  0  0  0  0  0  0
   -0.2945    3.2429    1.9566 C   0  0  0  0  0  0  0  0  0  0  0  0
    0.7436    4.2918    1.8243 C   0  0  0  0  0  0  0  0  0  0  0  0
   -0.4478   -0.3936   -0.5970 C   0  0  0  0  0  0  0  0  0  0  0  0
   -1.6846   -0.8985   -1.0084 C   0  0  0  0  0  0  0  0  0  0  0  0
   -2.3221   -0.3725    3.3481 H   0  0  0  0  0  0  0  0  0  0  0  0
   -1.5816    0.2752    1.8961 H   0  0  0  0  0  0  0  0  0  0  0  0
   -2.5871    1.3350    3.0493 H   0  0  0  0  0  0  0  0  0  0  0  0
   -4.5616    0.0163    2.4965 H   0  0  0  0  0  0  0  0  0  0  0  0
   -3.6792   -1.1287    1.5152 H   0  0  0  0  0  0  0  0  0  0  0  0
   -5.2532    0.4209    0.3592 H   0  0  0  0  0  0  0  0  0  0  0  0
   -4.3830    1.8294    0.9357 H   0  0  0  0  0  0  0  0  0  0  0  0
   -4.3108    1.1010   -1.4786 H   0  0  0  0  0  0  0  0  0  0  0  0
   -2.9306    1.8329   -0.7744 H   0  0  0  0  0  0  0  0  0  0  0  0
   -5.6592   -0.3032   -1.8216 H   0  0  0  0  0  0  0  0  0  0  0  0
   -6.7867   -2.2978   -2.6537 H   0  0  0  0  0  0  0  0  0  0  0  0
   -5.5109   -4.4083   -2.9193 H   0  0  0  0  0  0  0  0  0  0  0  0
   -3.1536   -4.4900   -2.3472 H   0  0  0  0  0  0  0  0  0  0  0  0
   -0.8781   -4.1234   -1.6533 H   0  0  0  0  0  0  0  0  0  0  0  0
    1.3423   -3.2586   -0.8810 H   0  0  0  0  0  0  0  0  0  0  0  0
    3.3047   -2.0415   -0.2300 H   0  0  0  0  0  0  0  0  0  0  0  0
    5.1409   -2.1346   -1.1070 H   0  0  0  0  0  0  0  0  0  0  0  0
    7.4116   -3.0186   -0.9352 H   0  0  0  0  0  0  0  0  0  0  0  0
    8.9816   -1.9821    0.5818 H   0  0  0  0  0  0  0  0  0  0  0  0
    5.9436    0.8640    1.7668 H   0  0  0  0  0  0  0  0  0  0  0  0
    4.4304    1.9417    0.5591 H   0  0  0  0  0  0  0  0  0  0  0  0
    2.1283    2.6930    0.2652 H   0  0  0  0  0  0  0  0  0  0  0  0
    0.3350    2.8836   -0.7358 H   0  0  0  0  0  0  0  0  0  0  0  0
   -1.1224    2.3172   -1.3772 H   0  0  0  0  0  0  0  0  0  0  0  0
   -1.3365    3.9325    0.3117 H   0  0  0  0  0  0  0  0  0  0  0  0
   -2.1034    2.6049    1.1290 H   0  0  0  0  0  0  0  0  0  0  0  0
   -1.0412    3.6212    2.7295 H   0  0  0  0  0  0  0  0  0  0  0  0
    0.1290    2.3389    2.5203 H   0  0  0  0  0  0  0  0  0  0  0  0
    1.7046    3.9083    2.2223 H   0  0  0  0  0  0  0  0  0  0  0  0
    0.4981    5.1542    2.4945 H   0  0  0  0  0  0  0  0  0  0  0  0
    0.9384    4.6421    0.7898 H   0  0  0  0  0  0  0  0  0  0  0  0
  1  2  1  0
  2  3  1  0
  3  4  1  0
  4  5  1  0
  5  6  1  0
  6  7  2  0
  7  8  1  0
  8  9  2  0
  9 10  1  0
 10 11  2  0
 11 12  1  0
 12 13  2  0
 13 14  1  0
 14 15  2  0
 15 16  1  0
 16 17  2  0
 17 18  1  0
 18 19  1  0
 19 20  2  0
 20 21  1  0
 21 22  2  0
 22 23  1  0
 23 24  1  0
 23 25  2  0
 18 26  2  0
 26 27  1  0
 27 28  2  0
 28 29  1  0
 29 30  1  0
 30 31  1  0
 31 32  1  0
 32 33  1  0
 29 34  1  0
 34 35  2  0
 35  5  1  0
 11  6  1  0
 35 12  1  0
 34 15  1  0
 28 16  1  0
 25 19  1  0
  1 36  1  0
  1 37  1  0
  1 38  1  0
  2 39  1  0
  2 40  1  0
  3 41  1  0
  3 42  1  0
  4 43  1  0
  4 44  1  0
  7 45  1  0
  8 46  1  0
  9 47  1  0
 10 48  1  0
 13 49  1  0
 14 50  1  0
 17 51  1  0
 20 52  1  0
 21 53  1  0
 22 54  1  0
 25 55  1  0
 26 56  1  0
 27 57  1  0
 30 58  1  0
 30 59  1  0
 31 60  1  0
 31 61  1  0
 32 62  1  0
 32 63  1  0
 33 64  1  0
 33 65  1  0
 33 66  1  0
M  END
