
     RDKit          3D

 42 46  0  0  0  0  0  0  0  0999 V2000
    8.1700    0.2312   -0.1505 C   0  0  0  0  0  0  0  0  0  0  0  0
    6.7692    0.2320   -0.1281 O   0  0  0  0  0  0  0  0  0  0  0  0
    5.9753   -0.8608    0.1180 C   0  0  0  0  0  0  0  0  0  0  0  0
    6.5287   -1.9665    0.3455 O   0  0  0  0  0  0  0  0  0  0  0  0
    4.5054   -0.7366    0.1141 C   0  0  0  0  0  0  0  0  0  0  0  0
    3.6915   -1.8180    0.3528 C   0  0  0  0  0  0  0  0  0  0  0  0
    2.3017   -1.6865    0.3461 C   0  0  0  0  0  0  0  0  0  0  0  0
    1.7242   -0.4603    0.0983 C   0  0  0  0  0  0  0  0  0  0  0  0
    0.2609   -0.2666    0.0754 C   0  0  0  0  0  0  0  0  0  0  0  0
   -0.3178    0.9222    0.4592 C   0  0  0  0  0  0  0  0  0  0  0  0
   -1.6755    1.1627    0.4558 C   0  0  0  0  0  0  0  0  0  0  0  0
   -2.1932    2.3898    0.8592 C   0  0  0  0  0  0  0  0  0  0  0  0
   -3.5416    2.5889    0.8440 C   0  0  0  0  0  0  0  0  0  0  0  0
   -4.3981    1.5916    0.4342 C   0  0  0  0  0  0  0  0  0  0  0  0
   -5.7596    1.8353    0.4342 C   0  0  0  0  0  0  0  0  0  0  0  0
   -6.6344    0.8348    0.0229 C   0  0  0  0  0  0  0  0  0  0  0  0
   -6.0880   -0.3690   -0.3707 C   0  0  0  0  0  0  0  0  0  0  0  0
   -4.7303   -0.6258   -0.3755 C   0  0  0  0  0  0  0  0  0  0  0  0
   -4.2055   -1.8372   -0.7713 C   0  0  0  0  0  0  0  0  0  0  0  0
   -2.8433   -2.0456   -0.7572 C   0  0  0  0  0  0  0  0  0  0  0  0
   -1.9577   -1.0667   -0.3529 C   0  0  0  0  0  0  0  0  0  0  0  0
   -0.5876   -1.2742   -0.3371 C   0  0  0  0  0  0  0  0  0  0  0  0
   -2.5027    0.1439    0.0407 C   0  0  0  0  0  0  0  0  0  0  0  0
   -3.8613    0.3806    0.0378 C   0  0  0  0  0  0  0  0  0  0  0  0
    2.5754    0.6099   -0.1384 C   0  0  0  0  0  0  0  0  0  0  0  0
    3.9428    0.4978   -0.1357 C   0  0  0  0  0  0  0  0  0  0  0  0
    8.5195    1.2790    0.0558 H   0  0  0  0  0  0  0  0  0  0  0  0
    8.6458   -0.5081    0.4979 H   0  0  0  0  0  0  0  0  0  0  0  0
    8.4705    0.0192   -1.2147 H   0  0  0  0  0  0  0  0  0  0  0  0
    4.1521   -2.7703    0.5455 H   0  0  0  0  0  0  0  0  0  0  0  0
    1.6596   -2.5529    0.5375 H   0  0  0  0  0  0  0  0  0  0  0  0
    0.3368    1.7178    0.7835 H   0  0  0  0  0  0  0  0  0  0  0  0
   -1.5284    3.1638    1.1766 H   0  0  0  0  0  0  0  0  0  0  0  0
   -3.9410    3.5607    1.1647 H   0  0  0  0  0  0  0  0  0  0  0  0
   -6.1768    2.7857    0.7457 H   0  0  0  0  0  0  0  0  0  0  0  0
   -7.6897    0.9895    0.0109 H   0  0  0  0  0  0  0  0  0  0  0  0
   -6.7510   -1.1790   -0.7020 H   0  0  0  0  0  0  0  0  0  0  0  0
   -4.9084   -2.6021   -1.0887 H   0  0  0  0  0  0  0  0  0  0  0  0
   -2.4248   -2.9965   -1.0681 H   0  0  0  0  0  0  0  0  0  0  0  0
   -0.2149   -2.2262   -0.6511 H   0  0  0  0  0  0  0  0  0  0  0  0
    2.1024    1.5608   -0.3317 H   0  0  0  0  0  0  0  0  0  0  0  0
    4.5999    1.3516   -0.3250 H   0  0  0  0  0  0  0  0  0  0  0  0
  1  2  1  0
  2  3  1  0
  3  4  2  0
  3  5  1  0
  5  6  2  0
  6  7  1  0
  7  8  2  0
  8  9  1  0
  9 10  2  0
 10 11  1  0
 11 12  2  0
 12 13  1  0
 13 14  2  0
 14 15  1  0
 15 16  2  0
 16 17  1  0
 17 18  2  0
 18 19  1  0
 19 20  2  0
 20 21  1  0
 21 22  2  0
 21 23  1  0
 23 24  2  0
  8 25  1  0
 25 26  2  0
 26  5  1  0
 22  9  1  0
 23 11  1  0
 24 14  1  0
 24 18  1  0
  1 27  1  0
  1 28  1  0
  1 29  1  0
  6 30  1  0
  7 31  1  0
 10 32  1  0
 12 33  1  0
 13 34  1  0
 15 35  1  0
 16 36  1  0
 17 37  1  0
 19 38  1  0
 20 39  1  0
 22 40  1  0
 25 41  1  0
 26 42  1  0
M  END
