
     RDKit          3D

 32 34  0  0  0  0  0  0  0  0999 V2000
   -4.9672   -1.2998   -0.1271 C   0  0  0  0  0  0  0  0  0  0  0  0
   -4.2587   -0.0590    0.0825 N   0  0  0  0  0  0  0  0  0  0  0  0
   -4.9420    1.2176    0.0691 C   0  0  0  0  0  0  0  0  0  0  0  0
   -2.8640   -0.1043    0.2960 C   0  0  0  0  0  0  0  0  0  0  0  0
   -2.3508   -0.4110    1.5437 C   0  0  0  0  0  0  0  0  0  0  0  0
   -1.0276   -0.4691    1.8485 C   0  0  0  0  0  0  0  0  0  0  0  0
   -0.0687   -0.2016    0.8464 C   0  0  0  0  0  0  0  0  0  0  0  0
    1.2261   -0.2121    0.9887 N   0  0  0  0  0  0  0  0  0  0  0  0
    2.0056    0.0660   -0.0417 C   0  0  0  0  0  0  0  0  0  0  0  0
    3.4773    0.1217   -0.0913 C   0  0  0  0  0  0  0  0  0  0  0  0
    4.1713   -0.1593    1.0314 C   0  0  0  0  0  0  0  0  0  0  0  0
    5.5506   -0.1134    1.0349 C   0  0  0  0  0  0  0  0  0  0  0  0
    6.2066    0.2254   -0.1365 C   0  0  0  0  0  0  0  0  0  0  0  0
    5.4852    0.5087   -1.2719 C   0  0  0  0  0  0  0  0  0  0  0  0
    4.1024    0.4568   -1.2500 C   0  0  0  0  0  0  0  0  0  0  0  0
    0.8690    0.3578   -1.2860 S   0  0  0  0  0  0  0  0  0  0  0  0
   -0.5678    0.1030   -0.3931 C   0  0  0  0  0  0  0  0  0  0  0  0
   -1.9282    0.1544   -0.6773 C   0  0  0  0  0  0  0  0  0  0  0  0
   -6.0677   -1.1863   -0.0154 H   0  0  0  0  0  0  0  0  0  0  0  0
   -4.6514   -2.0316    0.6779 H   0  0  0  0  0  0  0  0  0  0  0  0
   -4.6915   -1.7940   -1.0843 H   0  0  0  0  0  0  0  0  0  0  0  0
   -5.8786    1.2339    0.6332 H   0  0  0  0  0  0  0  0  0  0  0  0
   -4.2972    2.0231    0.4996 H   0  0  0  0  0  0  0  0  0  0  0  0
   -5.1757    1.5389   -0.9676 H   0  0  0  0  0  0  0  0  0  0  0  0
   -3.0879   -0.6219    2.3333 H   0  0  0  0  0  0  0  0  0  0  0  0
   -0.7451   -0.7185    2.8526 H   0  0  0  0  0  0  0  0  0  0  0  0
    3.6622   -0.4267    1.9595 H   0  0  0  0  0  0  0  0  0  0  0  0
    6.1484   -0.3317    1.9081 H   0  0  0  0  0  0  0  0  0  0  0  0
    7.3033    0.2708   -0.1625 H   0  0  0  0  0  0  0  0  0  0  0  0
    6.0150    0.7743   -2.1867 H   0  0  0  0  0  0  0  0  0  0  0  0
    3.5651    0.6887   -2.1768 H   0  0  0  0  0  0  0  0  0  0  0  0
   -2.2180    0.3991   -1.6665 H   0  0  0  0  0  0  0  0  0  0  0  0
  1  2  1  0
  2  3  1  0
  2  4  1  0
  4  5  2  0
  5  6  1  0
  6  7  2  0
  7  8  1  0
  8  9  2  0
  9 10  1  0
 10 11  2  0
 11 12  1  0
 12 13  2  0
 13 14  1  0
 14 15  2  0
  9 16  1  0
 16 17  1  0
 17 18  2  0
 18  4  1  0
 17  7  1  0
 15 10  1  0
  1 19  1  0
  1 20  1  0
  1 21  1  0
  3 22  1  0
  3 23  1  0
  3 24  1  0
  5 25  1  0
  6 26  1  0
 11 27  1  0
 12 28  1  0
 13 29  1  0
 14 30  1  0
 15 31  1  0
 18 32  1  0
M  END
