
     RDKit          3D

 78 82  0  0  0  0  0  0  0  0999 V2000
   -5.8675   -3.0059   -1.6786 C   0  0  0  0  0  0  0  0  0  0  0  0
   -4.7132   -3.6658   -1.3505 O   0  0  0  0  0  0  0  0  0  0  0  0
   -4.7374   -4.0848   -0.0378 C   0  0  0  0  0  0  0  0  0  0  0  0
   -4.8704   -2.9147    0.8768 C   0  0  0  0  0  0  0  0  0  0  0  0
   -3.7216   -1.9839    0.6769 C   0  0  0  0  0  0  0  0  0  0  0  0
   -3.8275   -0.7336    0.2648 C   0  0  0  0  0  0  0  0  0  0  0  0
   -2.4855   -0.1568    0.1976 C   0  0  0  0  0  0  0  0  0  0  0  0
   -1.6671   -1.1420    0.5855 N   0  0  0  0  0  0  0  0  0  0  0  0
   -2.3072   -2.2448    0.8873 C   0  0  0  0  0  0  0  0  0  0  0  0
   -1.6222   -3.3720    1.3689 C   0  0  0  0  0  0  0  0  0  0  0  0
   -0.2506   -3.5370    1.1924 C   0  0  0  0  0  0  0  0  0  0  0  0
    0.6902   -2.6753    0.6370 C   0  0  0  0  0  0  0  0  0  0  0  0
    0.9628   -1.3785    0.8872 N   0  0  0  0  0  0  0  0  0  0  0  0
    1.8534   -0.9796   -0.0158 C   0  0  0  0  0  0  0  0  0  0  0  0
    2.2097   -2.0252   -0.8897 C   0  0  0  0  0  0  0  0  0  0  0  0
    1.4663   -3.1032   -0.4687 C   0  0  0  0  0  0  0  0  0  0  0  0
    1.5915   -4.4709   -1.0914 C   0  0  0  0  0  0  0  0  0  0  0  0
    2.6059   -5.2993   -0.4055 C   0  0  0  0  0  0  0  0  0  0  0  0
    2.3509   -5.5104    0.9153 O   0  0  0  0  0  0  0  0  0  0  0  0
    3.3528   -6.2934    1.4556 C   0  0  0  0  0  0  0  0  0  0  0  0
    2.3566    0.3253   -0.2942 C   0  0  0  0  0  0  0  0  0  0  0  0
    1.5678    1.3879   -0.4778 N   0  0  0  0  0  0  0  0  0  0  0  0
    2.1919    2.4670   -0.8250 C   0  0  0  0  0  0  0  0  0  0  0  0
    1.5199    3.6598   -1.1242 C   0  0  0  0  0  0  0  0  0  0  0  0
    0.1210    3.7474   -1.1789 C   0  0  0  0  0  0  0  0  0  0  0  0
   -0.8460    2.8695   -0.6995 C   0  0  0  0  0  0  0  0  0  0  0  0
   -1.0231    1.5480   -0.8945 N   0  0  0  0  0  0  0  0  0  0  0  0
   -2.0187    1.1598   -0.0994 C   0  0  0  0  0  0  0  0  0  0  0  0
   -2.5435    2.2374    0.6367 C   0  0  0  0  0  0  0  0  0  0  0  0
   -1.7982    3.3209    0.2543 C   0  0  0  0  0  0  0  0  0  0  0  0
   -2.0314    4.7308    0.7574 C   0  0  0  0  0  0  0  0  0  0  0  0
   -2.8081    5.5060   -0.2425 C   0  0  0  0  0  0  0  0  0  0  0  0
   -3.0175    6.8030    0.1891 O   0  0  0  0  0  0  0  0  0  0  0  0
   -3.7143    6.9450    1.3571 C   0  0  0  0  0  0  0  0  0  0  0  0
    3.6142    2.0989   -0.8820 C   0  0  0  0  0  0  0  0  0  0  0  0
    4.7544    2.9831   -1.2258 C   0  0  0  0  0  0  0  0  0  0  0  0
    6.0293    2.2222   -1.1367 C   0  0  0  0  0  0  0  0  0  0  0  0
    6.2552    1.7265    0.1161 O   0  0  0  0  0  0  0  0  0  0  0  0
    6.3461    2.7294    1.0579 C   0  0  0  0  0  0  0  0  0  0  0  0
    3.7099    0.8320   -0.5686 C   0  0  0  0  0  0  0  0  0  0  0  0
   -6.7808   -3.6355   -1.5384 H   0  0  0  0  0  0  0  0  0  0  0  0
   -5.8243   -2.8021   -2.7803 H   0  0  0  0  0  0  0  0  0  0  0  0
   -5.9930   -2.0841   -1.1215 H   0  0  0  0  0  0  0  0  0  0  0  0
   -3.7541   -4.6069    0.1308 H   0  0  0  0  0  0  0  0  0  0  0  0
   -5.4981   -4.8741    0.1492 H   0  0  0  0  0  0  0  0  0  0  0  0
   -4.7468   -3.3211    1.9170 H   0  0  0  0  0  0  0  0  0  0  0  0
   -5.8142   -2.3704    0.8315 H   0  0  0  0  0  0  0  0  0  0  0  0
   -4.7703   -0.2339    0.0241 H   0  0  0  0  0  0  0  0  0  0  0  0
   -2.2504   -4.0980    1.8955 H   0  0  0  0  0  0  0  0  0  0  0  0
    0.0211   -4.5604    1.5577 H   0  0  0  0  0  0  0  0  0  0  0  0
    0.5597   -0.7839    1.7533 H   0  0  0  0  0  0  0  0  0  0  0  0
    2.9283   -2.0326   -1.7268 H   0  0  0  0  0  0  0  0  0  0  0  0
    0.5584   -4.9092   -1.0105 H   0  0  0  0  0  0  0  0  0  0  0  0
    1.7578   -4.3589   -2.1820 H   0  0  0  0  0  0  0  0  0  0  0  0
    3.6242   -4.8278   -0.5478 H   0  0  0  0  0  0  0  0  0  0  0  0
    2.6450   -6.2951   -0.9114 H   0  0  0  0  0  0  0  0  0  0  0  0
    4.3078   -5.7475    1.3257 H   0  0  0  0  0  0  0  0  0  0  0  0
    3.4003   -7.2651    0.9229 H   0  0  0  0  0  0  0  0  0  0  0  0
    3.1453   -6.4732    2.5227 H   0  0  0  0  0  0  0  0  0  0  0  0
    2.1803    4.5018   -1.3135 H   0  0  0  0  0  0  0  0  0  0  0  0
   -0.1579    4.7192   -1.6711 H   0  0  0  0  0  0  0  0  0  0  0  0
   -0.4865    0.9221   -1.6599 H   0  0  0  0  0  0  0  0  0  0  0  0
   -3.3800    2.2547    1.3592 H   0  0  0  0  0  0  0  0  0  0  0  0
   -1.0273    5.1771    0.8605 H   0  0  0  0  0  0  0  0  0  0  0  0
   -2.4750    4.6463    1.7480 H   0  0  0  0  0  0  0  0  0  0  0  0
   -2.3181    5.5481   -1.2193 H   0  0  0  0  0  0  0  0  0  0  0  0
   -3.8243    5.0844   -0.4350 H   0  0  0  0  0  0  0  0  0  0  0  0
   -3.1834    6.4544    2.1932 H   0  0  0  0  0  0  0  0  0  0  0  0
   -3.8135    8.0117    1.6648 H   0  0  0  0  0  0  0  0  0  0  0  0
   -4.7497    6.5405    1.3105 H   0  0  0  0  0  0  0  0  0  0  0  0
    4.6121    3.3365   -2.2864 H   0  0  0  0  0  0  0  0  0  0  0  0
    4.6957    3.8812   -0.6058 H   0  0  0  0  0  0  0  0  0  0  0  0
    6.0082    1.3360   -1.8335 H   0  0  0  0  0  0  0  0  0  0  0  0
    6.8686    2.8966   -1.4827 H   0  0  0  0  0  0  0  0  0  0  0  0
    7.1898    3.3960    0.7509 H   0  0  0  0  0  0  0  0  0  0  0  0
    6.5818    2.2397    2.0375 H   0  0  0  0  0  0  0  0  0  0  0  0
    5.4501    3.3648    1.1670 H   0  0  0  0  0  0  0  0  0  0  0  0
    4.6345    0.2460   -0.5225 H   0  0  0  0  0  0  0  0  0  0  0  0
  1  2  1  0
  2  3  1  0
  3  4  1  0
  4  5  1  0
  5  6  2  0
  6  7  1  0
  7  8  2  0
  8  9  1  0
  9 10  2  0
 10 11  1  0
 11 12  2  0
 12 13  1  0
 13 14  1  0
 14 15  1  0
 15 16  2  0
 16 17  1  0
 17 18  1  0
 18 19  1  0
 19 20  1  0
 14 21  2  0
 21 22  1  0
 22 23  2  0
 23 24  1  0
 24 25  2  0
 25 26  1  0
 26 27  1  0
 27 28  1  0
 28 29  2  0
 29 30  1  0
 30 31  1  0
 31 32  1  0
 32 33  1  0
 33 34  1  0
 23 35  1  0
 35 36  1  0
 36 37  1  0
 37 38  1  0
 38 39  1  0
 35 40  2  0
  9  5  1  0
 16 12  1  0
 40 21  1  0
 28  7  1  0
 30 26  2  0
  1 41  1  0
  1 42  1  0
  1 43  1  0
  3 44  1  0
  3 45  1  0
  4 46  1  0
  4 47  1  0
  6 48  1  0
 10 49  1  0
 11 50  1  0
 13 51  1  0
 15 52  1  0
 17 53  1  0
 17 54  1  0
 18 55  1  0
 18 56  1  0
 20 57  1  0
 20 58  1  0
 20 59  1  0
 24 60  1  0
 25 61  1  0
 27 62  1  0
 29 63  1  0
 31 64  1  0
 31 65  1  0
 32 66  1  0
 32 67  1  0
 34 68  1  0
 34 69  1  0
 34 70  1  0
 36 71  1  0
 36 72  1  0
 37 73  1  0
 37 74  1  0
 39 75  1  0
 39 76  1  0
 39 77  1  0
 40 78  1  0
M  END
