
     RDKit          3D

 64 67  0  0  0  0  0  0  0  0999 V2000
   -9.7590    1.8231    0.4829 C   0  0  0  0  0  0  0  0  0  0  0  0
   -8.3891    2.2784    0.0972 C   0  0  0  0  0  0  0  0  0  0  0  0
   -8.0641    1.9828   -1.3507 C   0  0  0  0  0  0  0  0  0  0  0  0
   -8.1210    0.5283   -1.6710 C   0  0  0  0  0  0  0  0  0  0  0  0
   -7.1293   -0.2795   -0.8267 C   0  0  0  0  0  0  0  0  0  0  0  0
   -7.2223   -1.7466   -1.1857 C   0  0  0  0  0  0  0  0  0  0  0  0
   -6.2768   -2.6038   -0.3886 C   0  0  0  0  0  0  0  0  0  0  0  0
   -5.7160    0.1822   -1.0832 C   0  0  0  0  0  0  0  0  0  0  0  0
   -4.8312   -0.5589   -0.3080 O   0  0  0  0  0  0  0  0  0  0  0  0
   -3.4570   -0.3932   -0.3001 C   0  0  0  0  0  0  0  0  0  0  0  0
   -2.7754    0.5327   -1.0630 C   0  0  0  0  0  0  0  0  0  0  0  0
   -1.4274    0.7112   -1.0699 C   0  0  0  0  0  0  0  0  0  0  0  0
   -0.6178   -0.0947   -0.2439 C   0  0  0  0  0  0  0  0  0  0  0  0
    0.6804   -0.0385   -0.1452 N   0  0  0  0  0  0  0  0  0  0  0  0
    1.3105   -0.8536    0.6685 C   0  0  0  0  0  0  0  0  0  0  0  0
    2.7670   -0.8826    0.8633 C   0  0  0  0  0  0  0  0  0  0  0  0
    3.4590   -1.7151    1.7010 C   0  0  0  0  0  0  0  0  0  0  0  0
    4.7884   -1.5873    1.7381 C   0  0  0  0  0  0  0  0  0  0  0  0
    5.3547   -0.6325    0.9342 C   0  0  0  0  0  0  0  0  0  0  0  0
    6.7833   -0.2964    0.7933 C   0  0  0  0  0  0  0  0  0  0  0  0
    7.6904   -0.9825    1.5215 C   0  0  0  0  0  0  0  0  0  0  0  0
    9.0509   -0.6703    1.3948 C   0  0  0  0  0  0  0  0  0  0  0  0
    9.4676    0.3365    0.5281 C   0  0  0  0  0  0  0  0  0  0  0  0
   10.8503    0.6454    0.4071 N   0  0  0  0  0  0  0  0  0  0  0  0
   11.2779    1.6856   -0.4920 C   0  0  0  0  0  0  0  0  0  0  0  0
   11.8412   -0.0713    1.1758 C   0  0  0  0  0  0  0  0  0  0  0  0
    8.5344    1.0316   -0.2114 C   0  0  0  0  0  0  0  0  0  0  0  0
    7.1843    0.6979   -0.0640 C   0  0  0  0  0  0  0  0  0  0  0  0
    3.9971    0.0542    0.1523 S   0  0  0  0  0  0  0  0  0  0  0  0
    0.0493   -1.7635    1.3500 S   0  0  0  0  0  0  0  0  0  0  0  0
   -1.2728   -1.0207    0.5222 C   0  0  0  0  0  0  0  0  0  0  0  0
   -2.6661   -1.1846    0.5104 C   0  0  0  0  0  0  0  0  0  0  0  0
   -9.8219    1.8641    1.6025 H   0  0  0  0  0  0  0  0  0  0  0  0
   -9.9727    0.7738    0.2110 H   0  0  0  0  0  0  0  0  0  0  0  0
  -10.5350    2.5264    0.1053 H   0  0  0  0  0  0  0  0  0  0  0  0
   -7.6229    1.8336    0.7546 H   0  0  0  0  0  0  0  0  0  0  0  0
   -8.3450    3.3773    0.2847 H   0  0  0  0  0  0  0  0  0  0  0  0
   -7.0765    2.3978   -1.6168 H   0  0  0  0  0  0  0  0  0  0  0  0
   -8.8007    2.5266   -1.9841 H   0  0  0  0  0  0  0  0  0  0  0  0
   -9.1313    0.0897   -1.5752 H   0  0  0  0  0  0  0  0  0  0  0  0
   -7.8041    0.3726   -2.7214 H   0  0  0  0  0  0  0  0  0  0  0  0
   -7.4194   -0.1219    0.2282 H   0  0  0  0  0  0  0  0  0  0  0  0
   -7.0103   -1.9239   -2.2507 H   0  0  0  0  0  0  0  0  0  0  0  0
   -8.2960   -2.0360   -0.9964 H   0  0  0  0  0  0  0  0  0  0  0  0
   -5.3040   -2.7627   -0.8699 H   0  0  0  0  0  0  0  0  0  0  0  0
   -6.1323   -2.2282    0.6487 H   0  0  0  0  0  0  0  0  0  0  0  0
   -6.7342   -3.6303   -0.2830 H   0  0  0  0  0  0  0  0  0  0  0  0
   -5.6466    1.2502   -0.7410 H   0  0  0  0  0  0  0  0  0  0  0  0
   -5.4408    0.0888   -2.1382 H   0  0  0  0  0  0  0  0  0  0  0  0
   -3.4378    1.1486   -1.6992 H   0  0  0  0  0  0  0  0  0  0  0  0
   -0.9976    1.4732   -1.7129 H   0  0  0  0  0  0  0  0  0  0  0  0
    2.8943   -2.4596    2.3138 H   0  0  0  0  0  0  0  0  0  0  0  0
    5.4351   -2.2225    2.3911 H   0  0  0  0  0  0  0  0  0  0  0  0
    7.4078   -1.7696    2.2041 H   0  0  0  0  0  0  0  0  0  0  0  0
    9.7746   -1.2155    1.9736 H   0  0  0  0  0  0  0  0  0  0  0  0
   10.6525    2.6015   -0.3834 H   0  0  0  0  0  0  0  0  0  0  0  0
   12.3254    1.9836   -0.2875 H   0  0  0  0  0  0  0  0  0  0  0  0
   11.2296    1.3795   -1.5493 H   0  0  0  0  0  0  0  0  0  0  0  0
   11.5185   -0.1942    2.2302 H   0  0  0  0  0  0  0  0  0  0  0  0
   12.8072    0.4327    1.0849 H   0  0  0  0  0  0  0  0  0  0  0  0
   11.9183   -1.0875    0.7178 H   0  0  0  0  0  0  0  0  0  0  0  0
    8.8312    1.8273   -0.9002 H   0  0  0  0  0  0  0  0  0  0  0  0
    6.4357    1.2198   -0.6246 H   0  0  0  0  0  0  0  0  0  0  0  0
   -3.0623   -1.9346    1.1463 H   0  0  0  0  0  0  0  0  0  0  0  0
  1  2  1  0
  2  3  1  0
  3  4  1  0
  4  5  1  0
  5  6  1  0
  6  7  1  0
  5  8  1  0
  8  9  1  0
  9 10  1  0
 10 11  2  0
 11 12  1  0
 12 13  2  0
 13 14  1  0
 14 15  2  0
 15 16  1  0
 16 17  2  0
 17 18  1  0
 18 19  2  0
 19 20  1  0
 20 21  2  0
 21 22  1  0
 22 23  2  0
 23 24  1  0
 24 25  1  0
 24 26  1  0
 23 27  1  0
 27 28  2  0
 19 29  1  0
 15 30  1  0
 30 31  1  0
 31 32  2  0
 32 10  1  0
 31 13  1  0
 29 16  1  0
 28 20  1  0
  1 33  1  0
  1 34  1  0
  1 35  1  0
  2 36  1  0
  2 37  1  0
  3 38  1  0
  3 39  1  0
  4 40  1  0
  4 41  1  0
  5 42  1  0
  6 43  1  0
  6 44  1  0
  7 45  1  0
  7 46  1  0
  7 47  1  0
  8 48  1  0
  8 49  1  0
 11 50  1  0
 12 51  1  0
 17 52  1  0
 18 53  1  0
 21 54  1  0
 22 55  1  0
 25 56  1  0
 25 57  1  0
 25 58  1  0
 26 59  1  0
 26 60  1  0
 26 61  1  0
 27 62  1  0
 28 63  1  0
 32 64  1  0
M  END
