
     RDKit          3D

 53 59  0  0  0  0  0  0  0  0999 V2000
    5.5873   -1.2157   -0.5463 C   0  0  0  0  0  0  0  0  0  0  0  0
    4.4393   -0.2883   -0.4284 C   0  0  0  0  0  0  0  0  0  0  0  0
    4.4769    1.0315   -0.5660 C   0  0  0  0  0  0  0  0  0  0  0  0
    5.5304    1.8769   -0.8422 C   0  0  0  0  0  0  0  0  0  0  0  0
    5.3572    3.2279   -0.9439 C   0  0  0  0  0  0  0  0  0  0  0  0
    4.1047    3.7616   -0.7676 C   0  0  0  0  0  0  0  0  0  0  0  0
    3.0445    2.9357   -0.4920 C   0  0  0  0  0  0  0  0  0  0  0  0
    3.2129    1.5715   -0.3880 C   0  0  0  0  0  0  0  0  0  0  0  0
    2.3609    0.5997   -0.1357 N   0  0  0  0  0  4  0  0  0  0  0  0
    3.0441   -0.6137   -0.1425 C   0  0  0  0  0  0  0  0  0  0  0  0
    2.3821   -1.7258    0.0982 C   0  0  0  0  0  0  0  0  0  0  0  0
    0.9473   -1.7132    0.3478 C   0  0  0  0  0  0  0  0  0  0  0  0
    0.1315   -2.8303    0.5535 C   0  0  0  0  0  0  0  0  0  0  0  0
    0.4184   -4.1721    0.6601 C   0  0  0  0  0  0  0  0  0  0  0  0
   -0.6310   -5.0336    0.9079 C   0  0  0  0  0  0  0  0  0  0  0  0
   -1.9099   -4.5485    1.0412 C   0  0  0  0  0  0  0  0  0  0  0  0
   -2.1783   -3.2085    0.9325 C   0  0  0  0  0  0  0  0  0  0  0  0
   -1.1420   -2.3048    0.6792 C   0  0  0  0  0  0  0  0  0  0  0  0
   -1.1050   -0.9335    0.5518 C   0  0  0  0  0  0  0  0  0  0  0  0
   -2.2215    0.0006    0.4487 C   0  0  0  0  0  0  0  0  0  0  0  0
   -2.3028    1.2692    0.8987 N   0  0  0  0  0  0  0  0  0  0  0  0
   -3.4368    1.8780    0.5244 C   0  0  0  0  0  0  0  0  0  0  0  0
   -3.9191    3.1670    0.7674 C   0  0  0  0  0  0  0  0  0  0  0  0
   -5.1359    3.5591    0.2648 C   0  0  0  0  0  0  0  0  0  0  0  0
   -5.8641    2.6599   -0.4782 C   0  0  0  0  0  0  0  0  0  0  0  0
   -5.3724    1.3818   -0.7120 C   0  0  0  0  0  0  0  0  0  0  0  0
   -4.1435    0.9796   -0.2068 C   0  0  0  0  0  0  0  0  0  0  0  0
   -3.3897   -0.1871   -0.2567 C   0  0  0  0  0  0  0  0  0  0  0  0
   -3.8792   -1.3534   -1.0607 C   0  0  0  0  0  0  0  0  0  0  0  0
    0.2097   -0.5885    0.3512 N   0  0  0  0  0  0  0  0  0  0  0  0
    0.8529    0.7661    0.1736 B   0  0  0  0  0  4  0  0  0  0  0  0
    0.9045    1.4943    1.4747 F   0  0  0  0  0  0  0  0  0  0  0  0
    0.3020    1.5747   -0.8759 F   0  0  0  0  0  0  0  0  0  0  0  0
    5.8629   -1.4080   -1.6038 H   0  0  0  0  0  0  0  0  0  0  0  0
    5.4338   -2.1649   -0.0313 H   0  0  0  0  0  0  0  0  0  0  0  0
    6.5129   -0.7600   -0.0873 H   0  0  0  0  0  0  0  0  0  0  0  0
    6.5449    1.4924   -0.9898 H   0  0  0  0  0  0  0  0  0  0  0  0
    6.2164    3.8786   -1.1654 H   0  0  0  0  0  0  0  0  0  0  0  0
    3.9950    4.8474   -0.8548 H   0  0  0  0  0  0  0  0  0  0  0  0
    2.0783    3.3777   -0.3591 H   0  0  0  0  0  0  0  0  0  0  0  0
    2.9793   -2.6328    0.0956 H   0  0  0  0  0  0  0  0  0  0  0  0
    1.4418   -4.5387    0.5518 H   0  0  0  0  0  0  0  0  0  0  0  0
   -0.4213   -6.0914    0.9935 H   0  0  0  0  0  0  0  0  0  0  0  0
   -2.7625   -5.2158    1.2396 H   0  0  0  0  0  0  0  0  0  0  0  0
   -3.1716   -2.8083    1.0746 H   0  0  0  0  0  0  0  0  0  0  0  0
   -1.6058    1.7559    1.4775 H   0  0  0  0  0  0  0  0  0  0  0  0
   -3.3443    3.8661    1.3499 H   0  0  0  0  0  0  0  0  0  0  0  0
   -5.5137    4.5741    0.4573 H   0  0  0  0  0  0  0  0  0  0  0  0
   -6.8183    2.9437   -0.8816 H   0  0  0  0  0  0  0  0  0  0  0  0
   -5.9210    0.6594   -1.2893 H   0  0  0  0  0  0  0  0  0  0  0  0
   -3.0876   -1.9760   -1.4692 H   0  0  0  0  0  0  0  0  0  0  0  0
   -4.6650   -1.8529   -0.4806 H   0  0  0  0  0  0  0  0  0  0  0  0
   -4.4297   -0.9644   -1.9786 H   0  0  0  0  0  0  0  0  0  0  0  0
  1  2  1  0
  2  3  2  0
  3  4  1  0
  4  5  2  0
  5  6  1  0
  6  7  2  0
  7  8  1  0
  8  9  2  0
  9 10  1  0
 10 11  2  0
 11 12  1  0
 12 13  2  0
 13 14  1  0
 14 15  2  0
 15 16  1  0
 16 17  2  0
 17 18  1  0
 18 19  2  0
 19 20  1  0
 20 21  1  0
 21 22  1  0
 22 23  2  0
 23 24  1  0
 24 25  2  0
 25 26  1  0
 26 27  2  0
 27 28  1  0
 28 29  1  0
 19 30  1  0
 30 31  1  0
 31 32  1  0
 31 33  1  0
 10  2  1  0
 30 12  1  0
  8  3  1  0
 31  9  1  0
 18 13  1  0
 28 20  2  0
 27 22  1  0
  1 34  1  0
  1 35  1  0
  1 36  1  0
  4 37  1  0
  5 38  1  0
  6 39  1  0
  7 40  1  0
 11 41  1  0
 14 42  1  0
 15 43  1  0
 16 44  1  0
 17 45  1  0
 21 46  1  0
 23 47  1  0
 24 48  1  0
 25 49  1  0
 26 50  1  0
 29 51  1  0
 29 52  1  0
 29 53  1  0
M  CHG  2   9   1  31  -1
M  END
