
     RDKit          3D

 34 36  0  0  0  0  0  0  0  0999 V2000
   -4.6103    0.8116   -0.5711 C   0  0  0  0  0  0  0  0  0  0  0  0
   -3.2896    0.2825   -0.2114 C   0  0  0  0  0  0  0  0  0  0  0  0
   -3.2227   -0.8715    0.5535 C   0  0  0  0  0  0  0  0  0  0  0  0
   -2.0174   -1.4282    0.9306 C   0  0  0  0  0  0  0  0  0  0  0  0
   -0.8142   -0.8322    0.5442 C   0  0  0  0  0  0  0  0  0  0  0  0
   -0.8936    0.3131   -0.2149 C   0  0  0  0  0  0  0  0  0  0  0  0
    0.2373    0.9064   -0.5999 N   0  0  0  0  0  0  0  0  0  0  0  0
    1.4384    0.3806   -0.2433 C   0  0  0  0  0  0  0  0  0  0  0  0
    2.6156    0.9677   -0.6239 C   0  0  0  0  0  0  0  0  0  0  0  0
    2.5884    2.0107   -1.3150 O   0  0  0  0  0  0  0  0  0  0  0  0
    3.7654    0.3893   -0.2328 N   0  0  0  0  0  0  0  0  0  0  0  0
    4.9959    1.0295   -0.6483 C   0  0  0  0  0  0  0  0  0  0  0  0
    3.8118   -0.7287    0.5080 C   0  0  0  0  0  0  0  0  0  0  0  0
    4.9550   -1.1748    0.8116 O   0  0  0  0  0  0  0  0  0  0  0  0
    2.6805   -1.3402    0.9052 N   0  0  0  0  0  0  0  0  0  0  0  0
    1.4875   -0.8245    0.5553 C   0  0  0  0  0  0  0  0  0  0  0  0
    0.3235   -1.4048    0.9315 N   0  0  0  0  0  0  0  0  0  0  0  0
    0.3567   -2.5972    1.7215 C   0  0  0  0  0  0  0  0  0  0  0  0
   -2.1171    0.8647   -0.5888 C   0  0  0  0  0  0  0  0  0  0  0  0
   -2.1155    2.0924   -1.4020 C   0  0  0  0  0  0  0  0  0  0  0  0
   -5.2830    0.7121    0.3307 H   0  0  0  0  0  0  0  0  0  0  0  0
   -4.6148    1.8881   -0.8243 H   0  0  0  0  0  0  0  0  0  0  0  0
   -5.0760    0.1853   -1.3869 H   0  0  0  0  0  0  0  0  0  0  0  0
   -4.1430   -1.3713    0.8781 H   0  0  0  0  0  0  0  0  0  0  0  0
   -2.0194   -2.3138    1.5172 H   0  0  0  0  0  0  0  0  0  0  0  0
    5.5144    0.4539   -1.4448 H   0  0  0  0  0  0  0  0  0  0  0  0
    5.6361    1.1259    0.2560 H   0  0  0  0  0  0  0  0  0  0  0  0
    4.8312    2.0423   -1.0312 H   0  0  0  0  0  0  0  0  0  0  0  0
    0.0131   -3.4403    1.0792 H   0  0  0  0  0  0  0  0  0  0  0  0
   -0.3023   -2.5620    2.6147 H   0  0  0  0  0  0  0  0  0  0  0  0
    1.3809   -2.7898    2.0903 H   0  0  0  0  0  0  0  0  0  0  0  0
   -1.2426    2.0218   -2.1137 H   0  0  0  0  0  0  0  0  0  0  0  0
   -3.0004    2.2338   -2.0226 H   0  0  0  0  0  0  0  0  0  0  0  0
   -1.8696    2.9677   -0.7528 H   0  0  0  0  0  0  0  0  0  0  0  0
  1  2  1  0
  2  3  2  0
  3  4  1  0
  4  5  2  0
  5  6  1  0
  6  7  1  0
  7  8  2  0
  8  9  1  0
  9 10  2  0
  9 11  1  0
 11 12  1  0
 11 13  1  0
 13 14  2  0
 13 15  1  0
 15 16  2  0
 16 17  1  0
 17 18  1  0
  6 19  2  0
 19 20  1  0
 19  2  1  0
 17  5  1  0
 16  8  1  0
  1 21  1  0
  1 22  1  0
  1 23  1  0
  3 24  1  0
  4 25  1  0
 12 26  1  0
 12 27  1  0
 12 28  1  0
 18 29  1  0
 18 30  1  0
 18 31  1  0
 20 32  1  0
 20 33  1  0
 20 34  1  0
M  END
