
     RDKit          3D

 27 29  0  0  0  0  0  0  0  0999 V2000
   -1.2106    2.6263    0.2824 C   0  0  0  0  0  0  0  0  0  0  0  0
   -0.7333    1.2371    0.1501 C   0  0  0  0  0  0  0  0  0  0  0  0
    0.5525    0.9856   -0.0126 C   0  0  0  0  0  0  0  0  0  0  0  0
    1.7414    1.8645   -0.1013 C   0  0  0  0  0  0  0  0  0  0  0  0
    2.7717    1.0552   -0.2654 C   0  0  0  0  0  0  0  0  0  0  0  0
    2.3596   -0.3212   -0.2941 C   0  0  0  0  0  0  0  0  0  0  0  0
    3.2422   -1.4840   -0.4608 C   0  0  0  0  0  0  0  0  0  0  0  0
    1.0567   -0.3369   -0.1443 N   0  0  0  0  0  4  0  0  0  0  0  0
    0.1435   -1.5304   -0.1049 B   0  0  0  0  0  4  0  0  0  0  0  0
    0.1772   -2.2495   -1.3887 F   0  0  0  0  0  0  0  0  0  0  0  0
    0.4918   -2.4961    0.9165 F   0  0  0  0  0  0  0  0  0  0  0  0
   -1.3250   -1.1092    0.0884 N   0  0  0  0  0  0  0  0  0  0  0  0
   -2.4031   -1.9303    0.1676 C   0  0  0  0  0  0  0  0  0  0  0  0
   -3.5110   -1.1445    0.3393 C   0  0  0  0  0  0  0  0  0  0  0  0
   -3.0880    0.1595    0.3627 C   0  0  0  0  0  0  0  0  0  0  0  0
   -1.7228    0.1503    0.2043 C   0  0  0  0  0  0  0  0  0  0  0  0
   -2.2998    2.7044    0.1692 H   0  0  0  0  0  0  0  0  0  0  0  0
   -0.9333    2.9591    1.3256 H   0  0  0  0  0  0  0  0  0  0  0  0
   -0.6968    3.2993   -0.4375 H   0  0  0  0  0  0  0  0  0  0  0  0
    1.7002    2.9458   -0.0365 H   0  0  0  0  0  0  0  0  0  0  0  0
    3.7945    1.4484   -0.3619 H   0  0  0  0  0  0  0  0  0  0  0  0
    3.7989   -1.7059    0.4962 H   0  0  0  0  0  0  0  0  0  0  0  0
    4.0352   -1.2107   -1.1906 H   0  0  0  0  0  0  0  0  0  0  0  0
    2.7194   -2.4151   -0.7326 H   0  0  0  0  0  0  0  0  0  0  0  0
   -2.4110   -3.0254    0.1077 H   0  0  0  0  0  0  0  0  0  0  0  0
   -4.5165   -1.5273    0.4344 H   0  0  0  0  0  0  0  0  0  0  0  0
   -3.7333    1.0510    0.4868 H   0  0  0  0  0  0  0  0  0  0  0  0
  1  2  1  0
  2  3  2  0
  3  4  1  0
  4  5  2  0
  5  6  1  0
  6  7  1  0
  6  8  2  0
  8  9  1  0
  9 10  1  0
  9 11  1  0
  9 12  1  0
 12 13  1  0
 13 14  2  0
 14 15  1  0
 15 16  2  0
 16  2  1  0
  8  3  1  0
 16 12  1  0
  1 17  1  0
  1 18  1  0
  1 19  1  0
  4 20  1  0
  5 21  1  0
  7 22  1  0
  7 23  1  0
  7 24  1  0
 13 25  1  0
 14 26  1  0
 15 27  1  0
M  CHG  2   8   1   9  -1
M  END
