
     RDKit          3D

 53 57  0  0  0  0  0  0  0  0999 V2000
   -2.9927    1.7699   -0.6091 C   0  0  0  0  0  0  0  0  0  0  0  0
   -3.3357    2.0368    0.6992 C   0  0  0  0  0  0  0  0  0  0  0  0
   -3.5907    2.2290    1.7073 C   0  0  0  0  0  0  0  0  0  0  0  0
   -3.1844    2.3804    3.1145 C   0  0  0  0  0  0  0  0  0  0  0  0
   -4.2137    2.5915    3.8293 C   0  0  0  0  0  0  0  0  0  0  0  0
   -5.4489    2.7095    3.7248 C   0  0  0  0  0  0  0  0  0  0  0  0
   -5.5141    2.4493    1.9769 S   0  0  0  0  0  0  0  0  0  0  0  0
   -2.5730    1.4602   -2.2512 C   0  0  0  0  0  0  0  0  0  0  0  0
   -4.1722    1.4532   -2.5047 C   0  0  0  0  0  0  0  0  0  0  0  0
   -5.2023    1.4525   -2.6834 C   0  0  0  0  0  0  0  0  0  0  0  0
   -6.6988    1.4693   -2.9446 C   0  0  0  0  0  0  0  0  0  0  0  0
   -7.6862    1.4765   -3.6560 C   0  0  0  0  0  0  0  0  0  0  0  0
   -8.9382    1.5393   -3.4313 C   0  0  0  0  0  0  0  0  0  0  0  0
   -9.2179    1.6188   -2.0124 C   0  0  0  0  0  0  0  0  0  0  0  0
   -7.6637    1.5902   -1.3196 S   0  0  0  0  0  0  0  0  0  0  0  0
   -1.7557    0.9813   -2.6599 C   0  0  0  0  0  0  0  0  0  0  0  0
   -0.6222    0.3120   -1.7042 C   0  0  0  0  0  0  0  0  0  0  0  0
   -0.3702    0.5654   -0.4741 C   0  0  0  0  0  0  0  0  0  0  0  0
    0.6122   -0.3208    0.2216 C   0  0  0  0  0  0  0  0  0  0  0  0
    1.0616   -1.2389   -0.6499 C   0  0  0  0  0  0  0  0  0  0  0  0
    2.0970   -2.2928   -0.5160 C   0  0  0  0  0  0  0  0  0  0  0  0
    3.3357   -2.0646   -0.2410 C   0  0  0  0  0  0  0  0  0  0  0  0
    3.8849   -0.8251   -0.1052 C   0  0  0  0  0  0  0  0  0  0  0  0
    4.4488    0.4288    0.0434 C   0  0  0  0  0  0  0  0  0  0  0  0
    4.9526    1.5805    0.1872 C   0  0  0  0  0  0  0  0  0  0  0  0
    4.5994    2.7347    0.9074 C   0  0  0  0  0  0  0  0  0  0  0  0
    5.4233    3.7979    0.7752 C   0  0  0  0  0  0  0  0  0  0  0  0
    6.4255    3.8459    0.0989 C   0  0  0  0  0  0  0  0  0  0  0  0
    6.5009    2.2056   -0.6292 S   0  0  0  0  0  0  0  0  0  0  0  0
    4.0349   -3.0921   -0.0726 C   0  0  0  0  0  0  0  0  0  0  0  0
    4.9213   -4.3819    0.1340 C   0  0  0  0  0  0  0  0  0  0  0  0
    5.6910   -5.5265    0.3302 C   0  0  0  0  0  0  0  0  0  0  0  0
    5.7670   -6.1907    1.4991 C   0  0  0  0  0  0  0  0  0  0  0  0
    6.7782   -6.9563    1.7250 C   0  0  0  0  0  0  0  0  0  0  0  0
    7.7764   -7.0063    0.6580 C   0  0  0  0  0  0  0  0  0  0  0  0
    7.0690   -5.9894   -0.5085 S   0  0  0  0  0  0  0  0  0  0  0  0
    0.3131   -1.0097   -2.1220 S   0  0  0  0  0  0  0  0  0  0  0  0
   -2.1242    2.2264    3.2390 H   0  0  0  0  0  0  0  0  0  0  0  0
   -3.8598    2.7074    5.0659 H   0  0  0  0  0  0  0  0  0  0  0  0
   -6.2487    2.9638    4.4183 H   0  0  0  0  0  0  0  0  0  0  0  0
   -7.4215    1.4729   -4.8576 H   0  0  0  0  0  0  0  0  0  0  0  0
   -9.7810    1.5341   -4.1330 H   0  0  0  0  0  0  0  0  0  0  0  0
  -10.1413    1.7239   -1.5088 H   0  0  0  0  0  0  0  0  0  0  0  0
   -1.3845    0.7991   -3.7418 H   0  0  0  0  0  0  0  0  0  0  0  0
   -0.7671    1.3394    0.2250 H   0  0  0  0  0  0  0  0  0  0  0  0
    0.7891   -0.1234    1.2337 H   0  0  0  0  0  0  0  0  0  0  0  0
    1.7875   -3.3668   -0.7636 H   0  0  0  0  0  0  0  0  0  0  0  0
    3.7021    2.7191    1.4839 H   0  0  0  0  0  0  0  0  0  0  0  0
    5.0630    4.7185    1.4189 H   0  0  0  0  0  0  0  0  0  0  0  0
    7.2561    4.5620   -0.2249 H   0  0  0  0  0  0  0  0  0  0  0  0
    4.9585   -6.0087    2.3308 H   0  0  0  0  0  0  0  0  0  0  0  0
    6.9822   -7.5132    2.6167 H   0  0  0  0  0  0  0  0  0  0  0  0
    8.6775   -7.5377    0.7283 H   0  0  0  0  0  0  0  0  0  0  0  0
  1  2  3  0
  2  3  1  0
  3  4  2  0
  4  5  1  0
  5  6  2  0
  6  7  1  0
  1  8  1  0
  8  9  1  0
  9 10  3  0
 10 11  1  0
 11 12  2  0
 12 13  1  0
 13 14  2  0
 14 15  1  0
  8 16  2  3
 16 17  1  0
 17 18  2  0
 18 19  1  0
 19 20  2  0
 20 21  1  0
 21 22  2  3
 22 23  1  0
 23 24  3  0
 24 25  1  0
 25 26  2  0
 26 27  1  0
 27 28  2  0
 28 29  1  0
 22 30  1  0
 30 31  3  0
 31 32  1  0
 32 33  2  0
 33 34  1  0
 34 35  2  0
 35 36  1  0
 20 37  1  0
  7  3  1  0
 15 11  1  0
 37 17  1  0
 29 25  1  0
 36 32  1  0
  4 38  1  0
  5 39  1  0
  6 40  1  0
 12 41  1  0
 13 42  1  0
 14 43  1  0
 16 44  1  0
 18 45  1  0
 19 46  1  0
 21 47  1  0
 26 48  1  0
 27 49  1  0
 28 50  1  0
 33 51  1  0
 34 52  1  0
 35 53  1  0
M  END
