
     RDKit          3D

 42 44  0  0  0  0  0  0  0  0999 V2000
   -7.8464    0.7505   -0.1210 C   0  0  0  0  0  0  0  0  0  0  0  0
   -6.4850    0.2145    0.1786 N   0  0  0  0  0  0  0  0  0  0  0  0
   -6.4296   -1.0140    0.8833 C   0  0  0  0  0  0  0  0  0  0  0  0
   -5.4201    0.9529   -0.3090 C   0  0  0  0  0  0  0  0  0  0  0  0
   -5.7348    2.0273   -1.0106 O   0  0  0  0  0  0  0  0  0  0  0  0
   -4.0195    0.6909   -0.1511 C   0  0  0  0  0  0  0  0  0  0  0  0
   -3.1489    1.4760   -0.9319 C   0  0  0  0  0  0  0  0  0  0  0  0
   -1.7994    1.3130   -0.8425 C   0  0  0  0  0  0  0  0  0  0  0  0
   -1.2545    0.3842    0.0076 C   0  0  0  0  0  0  0  0  0  0  0  0
    0.2091    0.2388    0.0166 C   0  0  0  0  0  0  0  0  0  0  0  0
    0.9774   -0.5621    0.7212 N   0  0  0  0  0  0  0  0  0  0  0  0
    2.2692   -0.5528    0.5627 C   0  0  0  0  0  0  0  0  0  0  0  0
    3.2063   -1.3614    1.2419 C   0  0  0  0  0  0  0  0  0  0  0  0
    4.5219   -1.2439    0.9579 C   0  0  0  0  0  0  0  0  0  0  0  0
    5.0667   -0.3709    0.0277 C   0  0  0  0  0  0  0  0  0  0  0  0
    6.4400   -0.2683   -0.2463 N   0  0  0  0  0  0  0  0  0  0  0  0
    7.1280   -1.3095   -0.9935 C   0  0  0  0  0  0  0  0  0  0  0  0
    7.1924    0.8753    0.1998 C   0  0  0  0  0  0  0  0  0  0  0  0
    4.1504    0.4183   -0.6318 C   0  0  0  0  0  0  0  0  0  0  0  0
    2.7775    0.3253   -0.3659 C   0  0  0  0  0  0  0  0  0  0  0  0
    1.3585    1.0755   -0.9437 S   0  0  0  0  0  0  0  0  0  0  0  0
   -2.0293   -0.3902    0.7766 C   0  0  0  0  0  0  0  0  0  0  0  0
   -3.4179   -0.2136    0.6763 C   0  0  0  0  0  0  0  0  0  0  0  0
   -8.6198    0.1828    0.4398 H   0  0  0  0  0  0  0  0  0  0  0  0
   -8.0524    0.6229   -1.2140 H   0  0  0  0  0  0  0  0  0  0  0  0
   -7.9250    1.8082    0.1830 H   0  0  0  0  0  0  0  0  0  0  0  0
   -7.4756   -1.5187    0.8277 H   0  0  0  0  0  0  0  0  0  0  0  0
   -6.1907   -0.9747    1.9510 H   0  0  0  0  0  0  0  0  0  0  0  0
   -5.7835   -1.7875    0.3827 H   0  0  0  0  0  0  0  0  0  0  0  0
   -3.5087    2.2169   -1.6146 H   0  0  0  0  0  0  0  0  0  0  0  0
   -1.1493    1.9443   -1.4651 H   0  0  0  0  0  0  0  0  0  0  0  0
    2.8964   -2.0824    1.9920 H   0  0  0  0  0  0  0  0  0  0  0  0
    5.2626   -1.8711    1.4827 H   0  0  0  0  0  0  0  0  0  0  0  0
    7.6695   -1.9392   -0.2302 H   0  0  0  0  0  0  0  0  0  0  0  0
    6.4198   -1.9771   -1.5140 H   0  0  0  0  0  0  0  0  0  0  0  0
    7.8768   -0.8239   -1.6344 H   0  0  0  0  0  0  0  0  0  0  0  0
    7.1265    1.6975   -0.5629 H   0  0  0  0  0  0  0  0  0  0  0  0
    8.2578    0.6695    0.3670 H   0  0  0  0  0  0  0  0  0  0  0  0
    6.7165    1.1974    1.1598 H   0  0  0  0  0  0  0  0  0  0  0  0
    4.4665    1.1286   -1.3708 H   0  0  0  0  0  0  0  0  0  0  0  0
   -1.6674   -1.1266    1.4607 H   0  0  0  0  0  0  0  0  0  0  0  0
   -4.0317   -0.8228    1.3144 H   0  0  0  0  0  0  0  0  0  0  0  0
  1  2  1  0
  2  3  1  0
  2  4  1  0
  4  5  2  0
  4  6  1  0
  6  7  2  0
  7  8  1  0
  8  9  2  0
  9 10  1  0
 10 11  2  0
 11 12  1  0
 12 13  2  0
 13 14  1  0
 14 15  2  0
 15 16  1  0
 16 17  1  0
 16 18  1  0
 15 19  1  0
 19 20  2  0
 20 21  1  0
  9 22  1  0
 22 23  2  0
 23  6  1  0
 21 10  1  0
 20 12  1  0
  1 24  1  0
  1 25  1  0
  1 26  1  0
  3 27  1  0
  3 28  1  0
  3 29  1  0
  7 30  1  0
  8 31  1  0
 13 32  1  0
 14 33  1  0
 17 34  1  0
 17 35  1  0
 17 36  1  0
 18 37  1  0
 18 38  1  0
 18 39  1  0
 19 40  1  0
 22 41  1  0
 23 42  1  0
M  END
