
     RDKit          3D

 69 76  0  0  0  0  0  0  0  0999 V2000
    1.1419   -5.2591    2.2622 N   0  0  0  0  0  0  0  0  0  0  0  0
    0.5963   -4.3568    1.8984 C   0  0  0  0  0  0  0  0  0  0  0  0
   -0.0891   -3.2096    1.4242 C   0  0  0  0  0  0  0  0  0  0  0  0
    0.1567   -2.0610    0.8796 C   0  0  0  0  0  0  0  0  0  0  0  0
    1.5133   -1.7250    0.5882 C   0  0  0  0  0  0  0  0  0  0  0  0
    1.9171   -0.3976    0.4407 C   0  0  0  0  0  0  0  0  0  0  0  0
    3.0599    0.1876    0.0617 C   0  0  0  0  0  0  0  0  0  0  0  0
    4.1695   -1.1244   -0.3234 C   0  0  0  0  0  0  0  0  0  0  0  0
    5.2795   -0.1351   -0.7034 N   0  0  0  0  0  0  0  0  0  0  0  0
    4.9740    0.4647   -1.9966 C   0  0  0  0  0  0  0  0  0  0  0  0
    4.2766   -0.2791   -2.8655 C   0  0  0  0  0  0  0  0  0  0  0  0
    4.0553    0.5990   -4.1336 C   0  0  0  0  0  0  0  0  0  0  0  0
    4.5803    1.7485   -4.0153 C   0  0  0  0  0  0  0  0  0  0  0  0
    5.2802    2.5369   -3.2058 C   0  0  0  0  0  0  0  0  0  0  0  0
    5.5287    1.6534   -1.8998 C   0  0  0  0  0  0  0  0  0  0  0  0
    6.2557    2.3285   -0.9410 O   0  0  0  0  0  0  0  0  0  0  0  0
    6.4712    1.5308    0.2841 C   0  0  0  0  0  0  0  0  0  0  0  0
    7.1911    2.1025    1.3500 C   0  0  0  0  0  0  0  0  0  0  0  0
    7.3368    1.2457    2.4653 C   0  0  0  0  0  0  0  0  0  0  0  0
    6.8633    0.0050    2.5739 C   0  0  0  0  0  0  0  0  0  0  0  0
    6.1231   -0.5995    1.5073 C   0  0  0  0  0  0  0  0  0  0  0  0
    5.9798    0.2443    0.4263 C   0  0  0  0  0  0  0  0  0  0  0  0
    3.6538   -1.9460   -0.1395 C   0  0  0  0  0  0  0  0  0  0  0  0
    2.5228   -2.6806    0.2525 C   0  0  0  0  0  0  0  0  0  0  0  0
   -0.9776   -1.1056    0.6567 C   0  0  0  0  0  0  0  0  0  0  0  0
   -2.0729   -1.3045    1.5421 C   0  0  0  0  0  0  0  0  0  0  0  0
   -3.2408   -0.7020    1.4094 C   0  0  0  0  0  0  0  0  0  0  0  0
   -3.3136    0.2484    0.2551 C   0  0  0  0  0  0  0  0  0  0  0  0
   -4.7137    0.6163    0.0957 N   0  0  0  0  0  0  0  0  0  0  0  0
   -5.2514    1.6752    0.8219 C   0  0  0  0  0  0  0  0  0  0  0  0
   -4.4580    2.5912    1.4250 C   0  0  0  0  0  0  0  0  0  0  0  0
   -5.2224    3.5991    2.0891 C   0  0  0  0  0  0  0  0  0  0  0  0
   -6.4680    3.7221    2.1928 C   0  0  0  0  0  0  0  0  0  0  0  0
   -7.3239    2.7494    1.5371 C   0  0  0  0  0  0  0  0  0  0  0  0
   -6.7129    1.7238    0.8400 C   0  0  0  0  0  0  0  0  0  0  0  0
   -7.3705    0.7467    0.1678 O   0  0  0  0  0  0  0  0  0  0  0  0
   -6.8565   -0.3217   -0.5693 C   0  0  0  0  0  0  0  0  0  0  0  0
   -7.5840   -1.2585   -1.2409 C   0  0  0  0  0  0  0  0  0  0  0  0
   -6.9480   -2.2541   -1.9464 C   0  0  0  0  0  0  0  0  0  0  0  0
   -5.5611   -2.3201   -1.9776 C   0  0  0  0  0  0  0  0  0  0  0  0
   -4.8017   -1.3599   -1.2917 C   0  0  0  0  0  0  0  0  0  0  0  0
   -5.4199   -0.3462   -0.5702 C   0  0  0  0  0  0  0  0  0  0  0  0
   -2.2985    0.4572   -0.5944 C   0  0  0  0  0  0  0  0  0  0  0  0
   -1.1185   -0.2948   -0.3274 C   0  0  0  0  0  0  0  0  0  0  0  0
   -1.2608   -3.3572    1.4835 H   0  0  0  0  0  0  0  0  0  0  0  0
    1.0594    0.3251    0.7069 H   0  0  0  0  0  0  0  0  0  0  0  0
    3.4614    1.0646   -0.0190 H   0  0  0  0  0  0  0  0  0  0  0  0
    3.9012   -1.2079   -2.8673 H   0  0  0  0  0  0  0  0  0  0  0  0
    3.4856    0.0740   -4.8783 H   0  0  0  0  0  0  0  0  0  0  0  0
    4.3710    2.3881   -5.0436 H   0  0  0  0  0  0  0  0  0  0  0  0
    5.6869    3.4146   -3.1607 H   0  0  0  0  0  0  0  0  0  0  0  0
    7.5645    3.0370    1.3839 H   0  0  0  0  0  0  0  0  0  0  0  0
    7.9099    1.6346    3.3340 H   0  0  0  0  0  0  0  0  0  0  0  0
    7.0322   -0.5977    3.4351 H   0  0  0  0  0  0  0  0  0  0  0  0
    5.7443   -1.5919    1.5030 H   0  0  0  0  0  0  0  0  0  0  0  0
    4.4114   -3.0599   -0.4242 H   0  0  0  0  0  0  0  0  0  0  0  0
    2.3374   -3.6701    0.3278 H   0  0  0  0  0  0  0  0  0  0  0  0
   -1.8242   -1.9293    2.4282 H   0  0  0  0  0  0  0  0  0  0  0  0
   -4.0637   -0.7660    2.0283 H   0  0  0  0  0  0  0  0  0  0  0  0
   -3.3961    2.6257    1.3898 H   0  0  0  0  0  0  0  0  0  0  0  0
   -4.5063    4.3411    2.5643 H   0  0  0  0  0  0  0  0  0  0  0  0
   -7.0513    4.4536    2.7160 H   0  0  0  0  0  0  0  0  0  0  0  0
   -8.3796    2.8112    1.6260 H   0  0  0  0  0  0  0  0  0  0  0  0
   -8.6541   -1.2027   -1.1600 H   0  0  0  0  0  0  0  0  0  0  0  0
   -7.5305   -3.0052   -2.4800 H   0  0  0  0  0  0  0  0  0  0  0  0
   -5.0441   -3.0871   -2.5431 H   0  0  0  0  0  0  0  0  0  0  0  0
   -3.7670   -1.3873   -1.2488 H   0  0  0  0  0  0  0  0  0  0  0  0
   -2.3153    1.1107   -1.4300 H   0  0  0  0  0  0  0  0  0  0  0  0
   -0.2960   -0.1535   -1.1101 H   0  0  0  0  0  0  0  0  0  0  0  0
  1  2  3  0
  2  3  1  0
  3  4  2  3
  4  5  1  0
  5  6  2  0
  6  7  1  0
  7  8  2  0
  8  9  1  0
  9 10  1  0
 10 11  2  0
 11 12  1  0
 12 13  2  0
 13 14  1  0
 14 15  2  0
 15 16  1  0
 16 17  1  0
 17 18  2  0
 18 19  1  0
 19 20  2  0
 20 21  1  0
 21 22  2  0
  8 23  1  0
 23 24  2  0
  4 25  1  0
 25 26  2  0
 26 27  1  0
 27 28  2  0
 28 29  1  0
 29 30  1  0
 30 31  2  0
 31 32  1  0
 32 33  2  0
 33 34  1  0
 34 35  2  0
 35 36  1  0
 36 37  1  0
 37 38  2  0
 38 39  1  0
 39 40  2  0
 40 41  1  0
 41 42  2  0
 28 43  1  0
 43 44  2  0
 24  5  1  0
 44 25  1  0
 22  9  1  0
 42 29  1  0
 15 10  1  0
 22 17  1  0
 35 30  1  0
 42 37  1  0
  3 45  1  0
  6 46  1  0
  7 47  1  0
 11 48  1  0
 12 49  1  0
 13 50  1  0
 14 51  1  0
 18 52  1  0
 19 53  1  0
 20 54  1  0
 21 55  1  0
 23 56  1  0
 24 57  1  0
 26 58  1  0
 27 59  1  0
 31 60  1  0
 32 61  1  0
 33 62  1  0
 34 63  1  0
 38 64  1  0
 39 65  1  0
 40 66  1  0
 41 67  1  0
 43 68  1  0
 44 69  1  0
M  END
