
     RDKit          3D

 49 52  0  0  0  0  0  0  0  0999 V2000
   -5.6104    1.2669   -1.6525 C   0  0  0  0  0  0  0  0  0  0  0  0
   -6.2088    0.2519   -0.7518 C   0  0  0  0  0  0  0  0  0  0  0  0
   -5.3124   -0.6651   -0.1082 N   0  0  0  0  0  0  0  0  0  0  0  0
   -5.9747   -1.7443    0.6477 C   0  0  0  0  0  0  0  0  0  0  0  0
   -6.6658   -1.1090    1.8420 C   0  0  0  0  0  0  0  0  0  0  0  0
   -3.8936   -0.5777   -0.0992 C   0  0  0  0  0  0  0  0  0  0  0  0
   -3.1553   -1.7352   -0.0848 C   0  0  0  0  0  0  0  0  0  0  0  0
   -1.7714   -1.7867   -0.0282 C   0  0  0  0  0  0  0  0  0  0  0  0
   -1.1299   -0.5697    0.0150 C   0  0  0  0  0  0  0  0  0  0  0  0
    0.2710   -0.5914    0.0723 C   0  0  0  0  0  0  0  0  0  0  0  0
    0.9744   -1.8362    0.1257 C   0  0  0  0  0  0  0  0  0  0  0  0
    1.5375   -2.8516    0.1770 N   0  0  0  0  0  0  0  0  0  0  0  0
    0.8882    0.6165    0.1111 C   0  0  0  0  0  0  0  0  0  0  0  0
    2.3494    0.6927    0.0997 C   0  0  0  0  0  0  0  0  0  0  0  0
    3.0976    0.1518   -0.8494 C   0  0  0  0  0  0  0  0  0  0  0  0
    2.4817   -0.5310   -1.9148 C   0  0  0  0  0  0  0  0  0  0  0  0
    1.9677   -1.1077   -2.8408 N   0  0  0  0  0  0  0  0  0  0  0  0
    4.5749    0.2632   -0.7937 C   0  0  0  0  0  0  0  0  0  0  0  0
    5.3146    0.8711    0.1156 N   0  0  0  0  0  0  0  0  0  0  0  0
    6.6184    0.8633   -0.0028 C   0  0  0  0  0  0  0  0  0  0  0  0
    7.5227    1.4705    0.8955 C   0  0  0  0  0  0  0  0  0  0  0  0
    8.8542    1.3857    0.6509 C   0  0  0  0  0  0  0  0  0  0  0  0
    9.4377    0.7444   -0.4217 C   0  0  0  0  0  0  0  0  0  0  0  0
    8.5437    0.1435   -1.3067 C   0  0  0  0  0  0  0  0  0  0  0  0
    7.1569    0.2155   -1.0795 C   0  0  0  0  0  0  0  0  0  0  0  0
    5.7484   -0.3493   -1.8679 S   0  0  0  0  0  0  0  0  0  0  0  0
    0.1427    1.7688    0.0969 C   0  0  0  0  0  0  0  0  0  0  0  0
    0.7581    2.8971    0.1370 O   0  0  0  0  0  0  0  0  0  0  0  0
   -1.1518    1.7349    0.0441 O   0  0  0  0  0  0  0  0  0  0  0  0
   -1.8132    0.6150    0.0024 C   0  0  0  0  0  0  0  0  0  0  0  0
   -3.2122    0.6132   -0.0548 C   0  0  0  0  0  0  0  0  0  0  0  0
   -4.6690    0.9640   -2.1131 H   0  0  0  0  0  0  0  0  0  0  0  0
   -5.5677    2.2981   -1.2310 H   0  0  0  0  0  0  0  0  0  0  0  0
   -6.3224    1.3683   -2.5465 H   0  0  0  0  0  0  0  0  0  0  0  0
   -7.0038   -0.3460   -1.2949 H   0  0  0  0  0  0  0  0  0  0  0  0
   -6.8187    0.7685    0.0559 H   0  0  0  0  0  0  0  0  0  0  0  0
   -5.1913   -2.4481    0.9878 H   0  0  0  0  0  0  0  0  0  0  0  0
   -6.6839   -2.2818   -0.0024 H   0  0  0  0  0  0  0  0  0  0  0  0
   -5.9564   -0.5506    2.4763 H   0  0  0  0  0  0  0  0  0  0  0  0
   -7.4874   -0.4662    1.4895 H   0  0  0  0  0  0  0  0  0  0  0  0
   -7.0924   -1.9170    2.5029 H   0  0  0  0  0  0  0  0  0  0  0  0
   -3.6249   -2.7232   -0.1340 H   0  0  0  0  0  0  0  0  0  0  0  0
   -1.2149   -2.7042   -0.0168 H   0  0  0  0  0  0  0  0  0  0  0  0
    2.9046    1.2113    0.8882 H   0  0  0  0  0  0  0  0  0  0  0  0
    7.1883    2.0020    1.7755 H   0  0  0  0  0  0  0  0  0  0  0  0
    9.5788    1.8555    1.3423 H   0  0  0  0  0  0  0  0  0  0  0  0
   10.4797    0.6862   -0.6027 H   0  0  0  0  0  0  0  0  0  0  0  0
    8.8588   -0.3930   -2.1861 H   0  0  0  0  0  0  0  0  0  0  0  0
   -3.7176    1.5649   -0.0449 H   0  0  0  0  0  0  0  0  0  0  0  0
  1  2  1  0
  2  3  1  0
  3  4  1  0
  4  5  1  0
  3  6  1  0
  6  7  2  0
  7  8  1  0
  8  9  2  0
  9 10  1  0
 10 11  1  0
 11 12  3  0
 10 13  2  0
 13 14  1  0
 14 15  2  0
 15 16  1  0
 16 17  3  0
 15 18  1  0
 18 19  2  0
 19 20  1  0
 20 21  2  0
 21 22  1  0
 22 23  2  0
 23 24  1  0
 24 25  2  0
 25 26  1  0
 13 27  1  0
 27 28  2  0
 27 29  1  0
 29 30  1  0
 30 31  2  0
 31  6  1  0
 30  9  1  0
 26 18  1  0
 25 20  1  0
  1 32  1  0
  1 33  1  0
  1 34  1  0
  2 35  1  0
  2 36  1  0
  4 37  1  0
  4 38  1  0
  5 39  1  0
  5 40  1  0
  5 41  1  0
  7 42  1  0
  8 43  1  0
 14 44  1  0
 21 45  1  0
 22 46  1  0
 23 47  1  0
 24 48  1  0
 31 49  1  0
M  END
