
     RDKit          3D

 24 26  0  0  0  0  0  0  0  0999 V2000
   -3.5834   -1.3861   -0.6015 N   0  0  0  0  0  0  0  0  0  0  0  0
   -2.2832   -0.8965   -0.3982 N   0  0  0  0  0  0  0  0  0  0  0  0
   -1.1819   -1.7722   -0.1948 C   0  0  0  0  0  0  0  0  0  0  0  0
   -1.4192   -3.0056   -0.2042 O   0  0  0  0  0  0  0  0  0  0  0  0
    0.1606   -1.2232    0.0140 C   0  0  0  0  0  0  0  0  0  0  0  0
    1.2118   -2.0923    0.2090 C   0  0  0  0  0  0  0  0  0  0  0  0
    2.5150   -1.6299    0.4134 C   0  0  0  0  0  0  0  0  0  0  0  0
    2.7268   -0.2661    0.4155 C   0  0  0  0  0  0  0  0  0  0  0  0
    1.6948    0.6417    0.2227 C   0  0  0  0  0  0  0  0  0  0  0  0
    1.9571    2.0013    0.2332 C   0  0  0  0  0  0  0  0  0  0  0  0
    0.8954    2.8575    0.0367 C   0  0  0  0  0  0  0  0  0  0  0  0
   -0.3666    2.3551   -0.1599 C   0  0  0  0  0  0  0  0  0  0  0  0
   -0.6372    1.0027   -0.1719 C   0  0  0  0  0  0  0  0  0  0  0  0
    0.4170    0.1334    0.0236 C   0  0  0  0  0  0  0  0  0  0  0  0
   -2.0104    0.5005   -0.3869 C   0  0  0  0  0  0  0  0  0  0  0  0
   -2.9537    1.3136   -0.5627 O   0  0  0  0  0  0  0  0  0  0  0  0
   -4.2339   -0.5724   -0.6405 H   0  0  0  0  0  0  0  0  0  0  0  0
   -3.8518   -1.9018    0.2903 H   0  0  0  0  0  0  0  0  0  0  0  0
    1.0235   -3.1516    0.2035 H   0  0  0  0  0  0  0  0  0  0  0  0
    3.3079   -2.3278    0.5615 H   0  0  0  0  0  0  0  0  0  0  0  0
    3.7206    0.1173    0.5706 H   0  0  0  0  0  0  0  0  0  0  0  0
    2.9769    2.3609    0.3932 H   0  0  0  0  0  0  0  0  0  0  0  0
    1.1209    3.9187    0.0484 H   0  0  0  0  0  0  0  0  0  0  0  0
   -1.2070    3.0227   -0.3151 H   0  0  0  0  0  0  0  0  0  0  0  0
  1  2  1  0
  2  3  1  0
  3  4  2  0
  3  5  1  0
  5  6  1  0
  6  7  2  0
  7  8  1  0
  8  9  2  0
  9 10  1  0
 10 11  2  0
 11 12  1  0
 12 13  2  0
 13 14  1  0
 13 15  1  0
 15 16  2  0
 15  2  1  0
 14  5  2  0
 14  9  1  0
  1 17  1  0
  1 18  1  0
  6 19  1  0
  7 20  1  0
  8 21  1  0
 10 22  1  0
 11 23  1  0
 12 24  1  0
M  END
