
     RDKit          3D

 40 42  0  0  0  0  0  0  0  0999 V2000
   -7.0393   -0.3110   -0.3917 C   0  0  0  0  0  0  0  0  0  0  0  0
   -5.9387    0.5728   -0.2898 O   0  0  0  0  0  0  0  0  0  0  0  0
   -4.6728   -0.0008   -0.2280 C   0  0  0  0  0  0  0  0  0  0  0  0
   -4.4716   -1.3695   -0.2627 C   0  0  0  0  0  0  0  0  0  0  0  0
   -3.2165   -1.9133   -0.2005 C   0  0  0  0  0  0  0  0  0  0  0  0
   -2.1103   -1.1005   -0.1007 C   0  0  0  0  0  0  0  0  0  0  0  0
   -0.7537   -1.6383   -0.0318 C   0  0  0  0  0  0  0  0  0  0  0  0
   -0.3861   -2.9632   -0.0542 C   0  0  0  0  0  0  0  0  0  0  0  0
    0.9778   -3.0214    0.0319 N   0  0  0  0  0  0  0  0  0  0  0  0
    1.3907   -1.7451    0.1031 C   0  0  0  0  0  0  0  0  0  0  0  0
    2.7875   -1.3505    0.2071 C   0  0  0  0  0  0  0  0  0  0  0  0
    3.1410   -0.0793    0.2743 C   0  0  0  0  0  0  0  0  0  0  0  0
    4.5234    0.3831    0.3797 C   0  0  0  0  0  0  0  0  0  0  0  0
    5.6169   -0.4425    0.4216 C   0  0  0  0  0  0  0  0  0  0  0  0
    6.9141    0.0136    0.5214 C   0  0  0  0  0  0  0  0  0  0  0  0
    7.1297    1.3861    0.5831 C   0  0  0  0  0  0  0  0  0  0  0  0
    6.0422    2.2337    0.5424 C   0  0  0  0  0  0  0  0  0  0  0  0
    4.7535    1.7618    0.4426 C   0  0  0  0  0  0  0  0  0  0  0  0
    0.3367   -0.9263    0.0635 O   0  0  0  0  0  0  0  0  0  0  0  0
   -2.3245    0.2652   -0.0669 C   0  0  0  0  0  0  0  0  0  0  0  0
   -3.5728    0.8167   -0.1284 C   0  0  0  0  0  0  0  0  0  0  0  0
   -3.7863    2.1947   -0.0941 O   0  0  0  0  0  0  0  0  0  0  0  0
   -2.6467    3.0257    0.0085 C   0  0  0  0  0  0  0  0  0  0  0  0
   -7.0130   -0.8393   -1.3774 H   0  0  0  0  0  0  0  0  0  0  0  0
   -8.0094    0.2216   -0.3606 H   0  0  0  0  0  0  0  0  0  0  0  0
   -7.0185   -1.0740    0.4321 H   0  0  0  0  0  0  0  0  0  0  0  0
   -5.3704   -2.0049   -0.3429 H   0  0  0  0  0  0  0  0  0  0  0  0
   -3.0541   -2.9788   -0.2272 H   0  0  0  0  0  0  0  0  0  0  0  0
   -1.0759   -3.7850   -0.1274 H   0  0  0  0  0  0  0  0  0  0  0  0
    3.5403   -2.1047    0.2295 H   0  0  0  0  0  0  0  0  0  0  0  0
    2.3090    0.6298    0.2452 H   0  0  0  0  0  0  0  0  0  0  0  0
    5.4586   -1.5057    0.3744 H   0  0  0  0  0  0  0  0  0  0  0  0
    7.7689   -0.6402    0.5538 H   0  0  0  0  0  0  0  0  0  0  0  0
    8.1445    1.7386    0.6610 H   0  0  0  0  0  0  0  0  0  0  0  0
    6.2352    3.2888    0.5916 H   0  0  0  0  0  0  0  0  0  0  0  0
    3.9017    2.4226    0.4106 H   0  0  0  0  0  0  0  0  0  0  0  0
   -1.4537    0.9204    0.0122 H   0  0  0  0  0  0  0  0  0  0  0  0
   -1.9075    2.8239   -0.7899 H   0  0  0  0  0  0  0  0  0  0  0  0
   -2.2036    2.9933    1.0302 H   0  0  0  0  0  0  0  0  0  0  0  0
   -2.9465    4.1019   -0.1362 H   0  0  0  0  0  0  0  0  0  0  0  0
  1  2  1  0
  2  3  1  0
  3  4  2  0
  4  5  1  0
  5  6  2  0
  6  7  1  0
  7  8  2  0
  8  9  1  0
  9 10  2  0
 10 11  1  0
 11 12  2  0
 12 13  1  0
 13 14  2  0
 14 15  1  0
 15 16  2  0
 16 17  1  0
 17 18  2  0
 10 19  1  0
  6 20  1  0
 20 21  2  0
 21 22  1  0
 22 23  1  0
 21  3  1  0
 19  7  1  0
 18 13  1  0
  1 24  1  0
  1 25  1  0
  1 26  1  0
  4 27  1  0
  5 28  1  0
  8 29  1  0
 11 30  1  0
 12 31  1  0
 14 32  1  0
 15 33  1  0
 16 34  1  0
 17 35  1  0
 18 36  1  0
 20 37  1  0
 23 38  1  0
 23 39  1  0
 23 40  1  0
M  END
