
     RDKit          3D

 44 46  0  0  0  0  0  0  0  0999 V2000
   -3.5317   -4.7498   -0.3675 C   0  0  0  0  0  0  0  0  0  0  0  0
   -2.3494   -3.7548    0.5399 S   0  0  0  0  0  0  0  0  0  0  0  0
   -2.3305   -2.0671   -0.0146 C   0  0  0  0  0  0  0  0  0  0  0  0
   -3.1636   -1.6516   -1.0308 C   0  0  0  0  0  0  0  0  0  0  0  0
   -3.1379   -0.3427   -1.4518 C   0  0  0  0  0  0  0  0  0  0  0  0
   -2.2728    0.5270   -0.8426 C   0  0  0  0  0  0  0  0  0  0  0  0
   -1.4135    0.1563    0.1849 C   0  0  0  0  0  0  0  0  0  0  0  0
   -1.4560   -1.1674    0.5947 C   0  0  0  0  0  0  0  0  0  0  0  0
   -0.5195    1.0235    0.8364 N   0  0  0  0  0  0  0  0  0  0  0  0
    0.3706    0.5054    1.8733 C   0  0  0  0  0  0  0  0  0  0  0  0
    1.7117    0.0851    1.3536 C   0  0  0  0  0  0  0  0  0  0  0  0
    1.7462   -0.9718    0.3227 C   0  0  0  0  0  0  0  0  0  0  0  0
    3.0869   -1.2949   -0.1282 N   0  0  0  0  0  0  0  0  0  0  0  0
    3.6997   -0.2177   -0.8727 C   0  0  0  0  0  0  0  0  0  0  0  0
    3.0194   -2.4422   -1.0428 C   0  0  0  0  0  0  0  0  0  0  0  0
   -0.3598    2.4096    0.5459 C   0  0  0  0  0  0  0  0  0  0  0  0
    0.5589    3.1953    1.2328 C   0  0  0  0  0  0  0  0  0  0  0  0
    0.7551    4.5495    0.9782 C   0  0  0  0  0  0  0  0  0  0  0  0
    0.0064    5.1491   -0.0017 C   0  0  0  0  0  0  0  0  0  0  0  0
   -0.9094    4.4171   -0.7047 C   0  0  0  0  0  0  0  0  0  0  0  0
   -1.0706    3.0799   -0.4195 C   0  0  0  0  0  0  0  0  0  0  0  0
   -2.2667    2.2142   -1.3909 S   0  0  0  0  0  0  0  0  0  0  0  0
   -3.1114   -5.1468   -1.3206 H   0  0  0  0  0  0  0  0  0  0  0  0
   -4.4514   -4.1929   -0.6570 H   0  0  0  0  0  0  0  0  0  0  0  0
   -3.8522   -5.6547    0.2135 H   0  0  0  0  0  0  0  0  0  0  0  0
   -3.8530   -2.3171   -1.5263 H   0  0  0  0  0  0  0  0  0  0  0  0
   -3.7743    0.0234   -2.2446 H   0  0  0  0  0  0  0  0  0  0  0  0
   -0.8191   -1.4872    1.3910 H   0  0  0  0  0  0  0  0  0  0  0  0
   -0.1017   -0.2855    2.5101 H   0  0  0  0  0  0  0  0  0  0  0  0
    0.4908    1.3081    2.6319 H   0  0  0  0  0  0  0  0  0  0  0  0
    2.2187    0.9897    0.8948 H   0  0  0  0  0  0  0  0  0  0  0  0
    2.3881   -0.2072    2.1876 H   0  0  0  0  0  0  0  0  0  0  0  0
    1.1533   -0.7623   -0.5883 H   0  0  0  0  0  0  0  0  0  0  0  0
    1.3594   -1.9439    0.7407 H   0  0  0  0  0  0  0  0  0  0  0  0
    4.1475    0.5540   -0.1797 H   0  0  0  0  0  0  0  0  0  0  0  0
    4.5751   -0.6539   -1.4041 H   0  0  0  0  0  0  0  0  0  0  0  0
    3.0504    0.2313   -1.6315 H   0  0  0  0  0  0  0  0  0  0  0  0
    2.8881   -2.0327   -2.0768 H   0  0  0  0  0  0  0  0  0  0  0  0
    2.1955   -3.1313   -0.7663 H   0  0  0  0  0  0  0  0  0  0  0  0
    3.9864   -2.9673   -0.9701 H   0  0  0  0  0  0  0  0  0  0  0  0
    1.1718    2.7964    1.9869 H   0  0  0  0  0  0  0  0  0  0  0  0
    1.4874    5.1122    1.5479 H   0  0  0  0  0  0  0  0  0  0  0  0
    0.1690    6.2108   -0.1934 H   0  0  0  0  0  0  0  0  0  0  0  0
   -1.4920    4.9051   -1.4745 H   0  0  0  0  0  0  0  0  0  0  0  0
  1  2  1  0
  2  3  1  0
  3  4  2  0
  4  5  1  0
  5  6  2  0
  6  7  1  0
  7  8  2  0
  7  9  1  0
  9 10  1  0
 10 11  1  0
 11 12  1  0
 12 13  1  0
 13 14  1  0
 13 15  1  0
  9 16  1  0
 16 17  2  0
 17 18  1  0
 18 19  2  0
 19 20  1  0
 20 21  2  0
 21 22  1  0
  8  3  1  0
 21 16  1  0
 22  6  1  0
  1 23  1  0
  1 24  1  0
  1 25  1  0
  4 26  1  0
  5 27  1  0
  8 28  1  0
 10 29  1  0
 10 30  1  0
 11 31  1  0
 11 32  1  0
 12 33  1  0
 12 34  1  0
 14 35  1  0
 14 36  1  0
 14 37  1  0
 15 38  1  0
 15 39  1  0
 15 40  1  0
 17 41  1  0
 18 42  1  0
 19 43  1  0
 20 44  1  0
M  END
