
     RDKit          3D

 32 33  0  0  0  0  0  0  0  0999 V2000
   -4.9243   -0.7264    0.9376 C   0  0  0  0  0  0  0  0  0  0  0  0
   -4.0943    0.2854    0.2722 N   0  0  0  0  0  0  0  0  0  0  0  0
   -4.7108    1.4230   -0.3689 C   0  0  0  0  0  0  0  0  0  0  0  0
   -2.7038    0.1175    0.2770 C   0  0  0  0  0  0  0  0  0  0  0  0
   -2.1018   -0.9666    0.8868 C   0  0  0  0  0  0  0  0  0  0  0  0
   -0.7205   -1.1128    0.8791 C   0  0  0  0  0  0  0  0  0  0  0  0
    0.0733   -0.1719    0.2588 C   0  0  0  0  0  0  0  0  0  0  0  0
    1.5398   -0.3636    0.2725 C   0  0  0  0  0  0  0  0  0  0  0  0
    2.3879    0.4600   -0.2811 C   0  0  0  0  0  0  0  0  0  0  0  0
    3.8204    0.2288   -0.2414 C   0  0  0  0  0  0  0  0  0  0  0  0
    4.3930   -0.8578    0.3719 C   0  0  0  0  0  0  0  0  0  0  0  0
    5.7877   -1.0030    0.3625 C   0  0  0  0  0  0  0  0  0  0  0  0
    6.5391   -0.0407   -0.2677 C   0  0  0  0  0  0  0  0  0  0  0  0
    5.9651    1.0064   -0.8571 N   0  0  0  0  0  0  0  0  0  0  0  0
    4.6679    1.1144   -0.8322 N   0  0  0  0  0  0  0  0  0  0  0  0
   -0.5124    0.9072   -0.3491 C   0  0  0  0  0  0  0  0  0  0  0  0
   -1.9037    1.0579   -0.3434 C   0  0  0  0  0  0  0  0  0  0  0  0
   -5.9779   -0.3792    0.9825 H   0  0  0  0  0  0  0  0  0  0  0  0
   -4.5075   -0.9062    1.9606 H   0  0  0  0  0  0  0  0  0  0  0  0
   -4.8044   -1.6689    0.3653 H   0  0  0  0  0  0  0  0  0  0  0  0
   -4.3412    1.5255   -1.4254 H   0  0  0  0  0  0  0  0  0  0  0  0
   -4.4005    2.3486    0.1644 H   0  0  0  0  0  0  0  0  0  0  0  0
   -5.8017    1.3291   -0.4354 H   0  0  0  0  0  0  0  0  0  0  0  0
   -2.6770   -1.7336    1.3874 H   0  0  0  0  0  0  0  0  0  0  0  0
   -0.2697   -1.9692    1.3625 H   0  0  0  0  0  0  0  0  0  0  0  0
    1.9271   -1.2431    0.7741 H   0  0  0  0  0  0  0  0  0  0  0  0
    2.0066    1.3540   -0.7919 H   0  0  0  0  0  0  0  0  0  0  0  0
    3.8199   -1.6102    0.8637 H   0  0  0  0  0  0  0  0  0  0  0  0
    6.2519   -1.8518    0.8404 H   0  0  0  0  0  0  0  0  0  0  0  0
    7.6100   -0.1306   -0.2878 H   0  0  0  0  0  0  0  0  0  0  0  0
    0.0493    1.6724   -0.8478 H   0  0  0  0  0  0  0  0  0  0  0  0
   -2.3873    1.9054   -0.8193 H   0  0  0  0  0  0  0  0  0  0  0  0
  1  2  1  0
  2  3  1  0
  2  4  1  0
  4  5  2  0
  5  6  1  0
  6  7  2  0
  7  8  1  0
  8  9  2  0
  9 10  1  0
 10 11  2  0
 11 12  1  0
 12 13  2  0
 13 14  1  0
 14 15  2  0
  7 16  1  0
 16 17  2  0
 17  4  1  0
 15 10  1  0
  1 18  1  0
  1 19  1  0
  1 20  1  0
  3 21  1  0
  3 22  1  0
  3 23  1  0
  5 24  1  0
  6 25  1  0
  8 26  1  0
  9 27  1  0
 11 28  1  0
 12 29  1  0
 13 30  1  0
 16 31  1  0
 17 32  1  0
M  END
