
     RDKit          3D

 94 97  0  0  0  0  0  0  0  0999 V2000
   -9.6241    0.5246    4.9381 C   0  0  0  0  0  0  0  0  0  0  0  0
  -10.6592    1.1148    4.0396 C   0  0  0  0  0  0  0  0  0  0  0  0
  -10.1867    1.9005    3.0213 O   0  0  0  0  0  0  0  0  0  0  0  0
   -9.3343    1.2930    2.1323 C   0  0  0  0  0  0  0  0  0  0  0  0
   -9.9384    0.1107    1.4356 C   0  0  0  0  0  0  0  0  0  0  0  0
  -11.0525    0.3534    0.6979 O   0  0  0  0  0  0  0  0  0  0  0  0
  -10.9801    1.2230   -0.3418 C   0  0  0  0  0  0  0  0  0  0  0  0
  -10.0488    0.8918   -1.4540 C   0  0  0  0  0  0  0  0  0  0  0  0
   -8.7360    0.8028   -0.9916 O   0  0  0  0  0  0  0  0  0  0  0  0
   -7.6407    0.5034   -1.7471 C   0  0  0  0  0  0  0  0  0  0  0  0
   -7.7938    0.2754   -2.9905 O   0  0  0  0  0  0  0  0  0  0  0  0
   -6.2886    0.4244   -1.2287 C   0  0  0  0  0  0  0  0  0  0  0  0
   -5.2421    0.1295   -1.9740 C   0  0  0  0  0  0  0  0  0  0  0  0
   -3.8833    0.0563   -1.4264 C   0  0  0  0  0  0  0  0  0  0  0  0
   -2.7951   -0.2379   -2.1227 C   0  0  0  0  0  0  0  0  0  0  0  0
   -1.6264   -0.2142   -1.2369 C   0  0  0  0  0  0  0  0  0  0  0  0
   -0.3313   -0.4399   -1.4141 C   0  0  0  0  0  0  0  0  0  0  0  0
    0.1437   -0.8001   -2.7425 C   0  0  0  0  0  0  0  0  0  0  0  0
   -0.3275   -1.9352   -3.3525 C   0  0  0  0  0  0  0  0  0  0  0  0
   -1.2684   -2.8570   -2.6859 C   0  0  0  0  0  0  0  0  0  0  0  0
    0.0818   -2.2814   -4.6379 C   0  0  0  0  0  0  0  0  0  0  0  0
    0.9711   -1.4931   -5.3293 C   0  0  0  0  0  0  0  0  0  0  0  0
    1.4309   -1.8401   -6.7057 C   0  0  0  0  0  0  0  0  0  0  0  0
    1.4451   -0.3541   -4.7193 C   0  0  0  0  0  0  0  0  0  0  0  0
    1.0205   -0.0180   -3.4201 C   0  0  0  0  0  0  0  0  0  0  0  0
    1.5305    1.2372   -2.8143 C   0  0  0  0  0  0  0  0  0  0  0  0
    0.5937   -0.3539   -0.2892 C   0  0  0  0  0  0  0  0  0  0  0  0
    1.9774   -0.5821   -0.2515 C   0  0  0  0  0  0  0  0  0  0  0  0
    2.3949   -0.4034    1.0477 C   0  0  0  0  0  0  0  0  0  0  0  0
    3.7829   -0.5582    1.5253 C   0  0  0  0  0  0  0  0  0  0  0  0
    4.7314   -0.9129    0.6755 C   0  0  0  0  0  0  0  0  0  0  0  0
    6.1334   -1.0735    1.1399 C   0  0  0  0  0  0  0  0  0  0  0  0
    6.9770   -1.4163    0.2843 O   0  0  0  0  0  0  0  0  0  0  0  0
    6.4837   -0.8595    2.4293 O   0  0  0  0  0  0  0  0  0  0  0  0
    7.7468   -0.9702    2.9712 C   0  0  0  0  0  0  0  0  0  0  0  0
    8.7358    0.0260    2.4338 C   0  0  0  0  0  0  0  0  0  0  0  0
    8.8992   -0.1103    1.1030 O   0  0  0  0  0  0  0  0  0  0  0  0
    9.7560    0.7070    0.4446 C   0  0  0  0  0  0  0  0  0  0  0  0
   11.1875    0.6791    0.8393 C   0  0  0  0  0  0  0  0  0  0  0  0
   11.4584    1.0146    2.1411 O   0  0  0  0  0  0  0  0  0  0  0  0
   12.8393    0.9351    2.3304 C   0  0  0  0  0  0  0  0  0  0  0  0
   13.1535    1.3036    3.7626 C   0  0  0  0  0  0  0  0  0  0  0  0
    1.2790   -0.0784    1.7484 C   0  0  0  0  0  0  0  0  0  0  0  0
    0.1826   -0.0497    0.9283 N   0  0  0  0  0  0  0  0  0  0  0  0
   -1.2535    0.2562    1.2582 B   0  0  0  0  0  4  0  0  0  0  0  0
   -1.7857   -0.6583    2.2777 F   0  0  0  0  0  0  0  0  0  0  0  0
   -1.3879    1.5979    1.8170 F   0  0  0  0  0  0  0  0  0  0  0  0
   -2.1450    0.1218    0.0305 N   0  0  0  0  0  4  0  0  0  0  0  0
   -3.4481    0.2815   -0.0619 C   0  0  0  0  0  0  0  0  0  0  0  0
   -9.2565    1.2364    5.7093 H   0  0  0  0  0  0  0  0  0  0  0  0
  -10.0642   -0.3306    5.5201 H   0  0  0  0  0  0  0  0  0  0  0  0
   -8.7493    0.0963    4.4217 H   0  0  0  0  0  0  0  0  0  0  0  0
  -11.2920    1.7969    4.6821 H   0  0  0  0  0  0  0  0  0  0  0  0
  -11.4007    0.3434    3.6844 H   0  0  0  0  0  0  0  0  0  0  0  0
   -8.3925    0.9328    2.6080 H   0  0  0  0  0  0  0  0  0  0  0  0
   -9.0163    2.0699    1.4075 H   0  0  0  0  0  0  0  0  0  0  0  0
   -9.1176   -0.4239    0.9121 H   0  0  0  0  0  0  0  0  0  0  0  0
  -10.2440   -0.6123    2.2504 H   0  0  0  0  0  0  0  0  0  0  0  0
  -10.7447    2.2660   -0.0211 H   0  0  0  0  0  0  0  0  0  0  0  0
  -12.0117    1.3050   -0.7755 H   0  0  0  0  0  0  0  0  0  0  0  0
  -10.3641    0.0132   -2.0548 H   0  0  0  0  0  0  0  0  0  0  0  0
  -10.0752    1.7693   -2.1660 H   0  0  0  0  0  0  0  0  0  0  0  0
   -6.1232    0.6152   -0.1798 H   0  0  0  0  0  0  0  0  0  0  0  0
   -5.4184   -0.0600   -3.0168 H   0  0  0  0  0  0  0  0  0  0  0  0
   -2.7465   -0.4565   -3.1673 H   0  0  0  0  0  0  0  0  0  0  0  0
   -0.8514   -3.9003   -2.8024 H   0  0  0  0  0  0  0  0  0  0  0  0
   -2.2606   -2.8806   -3.1648 H   0  0  0  0  0  0  0  0  0  0  0  0
   -1.3906   -2.7108   -1.6141 H   0  0  0  0  0  0  0  0  0  0  0  0
   -0.2868   -3.1710   -5.1186 H   0  0  0  0  0  0  0  0  0  0  0  0
    2.2616   -2.5864   -6.6029 H   0  0  0  0  0  0  0  0  0  0  0  0
    0.6339   -2.2726   -7.3210 H   0  0  0  0  0  0  0  0  0  0  0  0
    1.8569   -0.9478   -7.1835 H   0  0  0  0  0  0  0  0  0  0  0  0
    2.1467    0.2887   -5.2355 H   0  0  0  0  0  0  0  0  0  0  0  0
    0.9249    1.4734   -1.9263 H   0  0  0  0  0  0  0  0  0  0  0  0
    1.4426    2.0880   -3.5480 H   0  0  0  0  0  0  0  0  0  0  0  0
    2.5719    1.0844   -2.5024 H   0  0  0  0  0  0  0  0  0  0  0  0
    2.5837   -0.8491   -1.0968 H   0  0  0  0  0  0  0  0  0  0  0  0
    4.0302   -0.3885    2.5428 H   0  0  0  0  0  0  0  0  0  0  0  0
    4.4632   -1.0816   -0.3572 H   0  0  0  0  0  0  0  0  0  0  0  0
    7.7428   -0.9771    4.0942 H   0  0  0  0  0  0  0  0  0  0  0  0
    8.1436   -1.9852    2.6230 H   0  0  0  0  0  0  0  0  0  0  0  0
    8.3458    1.0418    2.7233 H   0  0  0  0  0  0  0  0  0  0  0  0
    9.6738   -0.1453    3.0319 H   0  0  0  0  0  0  0  0  0  0  0  0
    9.7217    0.4800   -0.6597 H   0  0  0  0  0  0  0  0  0  0  0  0
    9.3866    1.7530    0.5522 H   0  0  0  0  0  0  0  0  0  0  0  0
   11.6870   -0.2819    0.5309 H   0  0  0  0  0  0  0  0  0  0  0  0
   11.7092    1.4547    0.2037 H   0  0  0  0  0  0  0  0  0  0  0  0
   13.3433    1.5844    1.5925 H   0  0  0  0  0  0  0  0  0  0  0  0
   13.1994   -0.1022    2.0965 H   0  0  0  0  0  0  0  0  0  0  0  0
   12.9998    0.3940    4.3767 H   0  0  0  0  0  0  0  0  0  0  0  0
   12.4394    2.0719    4.0925 H   0  0  0  0  0  0  0  0  0  0  0  0
   14.2127    1.6509    3.7942 H   0  0  0  0  0  0  0  0  0  0  0  0
    1.2538    0.1310    2.8130 H   0  0  0  0  0  0  0  0  0  0  0  0
   -4.1264    0.5417    0.7361 H   0  0  0  0  0  0  0  0  0  0  0  0
  1  2  1  0
  2  3  1  0
  3  4  1  0
  4  5  1  0
  5  6  1  0
  6  7  1  0
  7  8  1  0
  8  9  1  0
  9 10  1  0
 10 11  2  0
 10 12  1  0
 12 13  2  0
 13 14  1  0
 14 15  2  0
 15 16  1  0
 16 17  2  0
 17 18  1  0
 18 19  2  0
 19 20  1  0
 19 21  1  0
 21 22  2  0
 22 23  1  0
 22 24  1  0
 24 25  2  0
 25 26  1  0
 17 27  1  0
 27 28  2  0
 28 29  1  0
 29 30  1  0
 30 31  2  0
 31 32  1  0
 32 33  2  0
 32 34  1  0
 34 35  1  0
 35 36  1  0
 36 37  1  0
 37 38  1  0
 38 39  1  0
 39 40  1  0
 40 41  1  0
 41 42  1  0
 29 43  2  0
 43 44  1  0
 44 45  1  0
 45 46  1  0
 45 47  1  0
 45 48  1  0
 48 49  2  0
 49 14  1  0
 48 16  1  0
 25 18  1  0
 44 27  1  0
  1 50  1  0
  1 51  1  0
  1 52  1  0
  2 53  1  0
  2 54  1  0
  4 55  1  0
  4 56  1  0
  5 57  1  0
  5 58  1  0
  7 59  1  0
  7 60  1  0
  8 61  1  0
  8 62  1  0
 12 63  1  0
 13 64  1  0
 15 65  1  0
 20 66  1  0
 20 67  1  0
 20 68  1  0
 21 69  1  0
 23 70  1  0
 23 71  1  0
 23 72  1  0
 24 73  1  0
 26 74  1  0
 26 75  1  0
 26 76  1  0
 28 77  1  0
 30 78  1  0
 31 79  1  0
 35 80  1  0
 35 81  1  0
 36 82  1  0
 36 83  1  0
 38 84  1  0
 38 85  1  0
 39 86  1  0
 39 87  1  0
 41 88  1  0
 41 89  1  0
 42 90  1  0
 42 91  1  0
 42 92  1  0
 43 93  1  0
 49 94  1  0
M  CHG  2  45  -1  48   1
M  END
