
     RDKit          3D

 32 34  0  0  0  0  0  0  0  0999 V2000
   -4.8760   -0.7377    0.6229 C   0  0  0  0  0  0  0  0  0  0  0  0
   -3.4053   -0.7323    0.4133 C   0  0  0  0  0  0  0  0  0  0  0  0
   -2.6889   -1.8872    0.1960 C   0  0  0  0  0  0  0  0  0  0  0  0
   -1.2999   -1.8618    0.0003 C   0  0  0  0  0  0  0  0  0  0  0  0
   -0.6836   -0.6368    0.0342 C   0  0  0  0  0  0  0  0  0  0  0  0
   -1.3785    0.5342    0.2499 C   0  0  0  0  0  0  0  0  0  0  0  0
   -2.7520    0.4941    0.4420 C   0  0  0  0  0  0  0  0  0  0  0  0
   -0.7452    1.7722    0.2828 C   0  0  0  0  0  0  0  0  0  0  0  0
   -1.5313    2.9523    0.5125 C   0  0  0  0  0  0  0  0  0  0  0  0
   -2.1844    3.8976    0.6997 N   0  0  0  0  0  0  0  0  0  0  0  0
    0.6170    1.8569    0.0969 C   0  0  0  0  0  0  0  0  0  0  0  0
    1.3028    3.1369    0.1264 C   0  0  0  0  0  0  0  0  0  0  0  0
    1.8572    4.1556    0.1317 N   0  0  0  0  0  0  0  0  0  0  0  0
    1.2937    0.6664   -0.1182 C   0  0  0  0  0  0  0  0  0  0  0  0
    2.6718    0.8089   -0.3006 C   0  0  0  0  0  0  0  0  0  0  0  0
    3.4422   -0.3103   -0.5218 C   0  0  0  0  0  0  0  0  0  0  0  0
    4.9053   -0.1791   -0.7173 C   0  0  0  0  0  0  0  0  0  0  0  0
    2.8223   -1.5289   -0.5547 C   0  0  0  0  0  0  0  0  0  0  0  0
    1.4564   -1.6972   -0.3767 C   0  0  0  0  0  0  0  0  0  0  0  0
    0.6782   -0.5786   -0.1544 C   0  0  0  0  0  0  0  0  0  0  0  0
   -5.2974    0.2735    0.3804 H   0  0  0  0  0  0  0  0  0  0  0  0
   -5.2929   -1.5137   -0.0511 H   0  0  0  0  0  0  0  0  0  0  0  0
   -5.0681   -1.0025    1.6851 H   0  0  0  0  0  0  0  0  0  0  0  0
   -3.2335   -2.8160    0.1813 H   0  0  0  0  0  0  0  0  0  0  0  0
   -0.8139   -2.7984   -0.1624 H   0  0  0  0  0  0  0  0  0  0  0  0
   -3.3121    1.4014    0.6123 H   0  0  0  0  0  0  0  0  0  0  0  0
    3.1439    1.7895   -0.2703 H   0  0  0  0  0  0  0  0  0  0  0  0
    5.1413    0.1958   -1.7348 H   0  0  0  0  0  0  0  0  0  0  0  0
    5.3540    0.5502   -0.0098 H   0  0  0  0  0  0  0  0  0  0  0  0
    5.4393   -1.1379   -0.5585 H   0  0  0  0  0  0  0  0  0  0  0  0
    3.4312   -2.4037   -0.7286 H   0  0  0  0  0  0  0  0  0  0  0  0
    1.0064   -2.6634   -0.4086 H   0  0  0  0  0  0  0  0  0  0  0  0
  1  2  1  0
  2  3  2  0
  3  4  1  0
  4  5  2  0
  5  6  1  0
  6  7  2  0
  6  8  1  0
  8  9  1  0
  9 10  3  0
  8 11  2  0
 11 12  1  0
 12 13  3  0
 11 14  1  0
 14 15  2  0
 15 16  1  0
 16 17  1  0
 16 18  2  0
 18 19  1  0
 19 20  2  0
  7  2  1  0
 20 14  1  0
 20  5  1  0
  1 21  1  0
  1 22  1  0
  1 23  1  0
  3 24  1  0
  4 25  1  0
  7 26  1  0
 15 27  1  0
 17 28  1  0
 17 29  1  0
 17 30  1  0
 18 31  1  0
 19 32  1  0
M  END
