
     RDKit          3D

 73 79  0  0  0  0  0  0  0  0999 V2000
   -3.7101    3.3192    0.4073 C   0  0  0  0  0  0  0  0  0  0  0  0
   -3.9711    3.0668    1.8345 C   0  0  0  0  0  0  0  0  0  0  0  0
   -4.6986    1.8384    2.2468 C   0  0  0  0  0  0  0  0  0  0  0  0
   -4.1604    0.5194    2.0025 C   0  0  0  0  0  0  0  0  0  0  0  0
   -3.8697   -0.0968    0.7110 C   0  0  0  0  0  0  0  0  0  0  0  0
   -4.9454   -0.3220   -0.2659 C   0  0  0  0  0  0  0  0  0  0  0  0
   -5.6865    0.8696   -0.7946 C   0  0  0  0  0  0  0  0  0  0  0  0
   -3.2567   -1.4941    1.0464 C   0  0  0  0  0  0  0  0  0  0  0  0
   -2.9426   -2.1500   -0.1916 N   0  0  0  0  0  0  0  0  0  0  0  0
   -3.6796   -3.0395   -0.8983 C   0  0  0  0  0  0  0  0  0  0  0  0
   -4.9143   -3.6077   -0.6592 C   0  0  0  0  0  0  0  0  0  0  0  0
   -5.4159   -4.5019   -1.5684 C   0  0  0  0  0  0  0  0  0  0  0  0
   -6.6915   -5.1332   -1.3866 C   0  0  0  0  0  0  0  0  0  0  0  0
   -7.7454   -5.6329   -1.2321 N   0  0  0  0  0  0  0  0  0  0  0  0
   -4.6806   -4.8190   -2.7050 C   0  0  0  0  0  0  0  0  0  0  0  0
   -3.4429   -4.2445   -2.9360 C   0  0  0  0  0  0  0  0  0  0  0  0
   -2.9385   -3.3430   -2.0173 C   0  0  0  0  0  0  0  0  0  0  0  0
   -1.7568   -2.6377   -1.9846 C   0  0  0  0  0  0  0  0  0  0  0  0
   -0.6678   -2.5740   -2.8509 C   0  0  0  0  0  0  0  0  0  0  0  0
    0.3752   -1.7434   -2.5050 C   0  0  0  0  0  0  0  0  0  0  0  0
    0.3750   -0.9883   -1.3512 C   0  0  0  0  0  0  0  0  0  0  0  0
    1.4717   -0.1207   -1.0023 C   0  0  0  0  0  0  0  0  0  0  0  0
    2.4074    0.5949   -0.7011 C   0  0  0  0  0  0  0  0  0  0  0  0
    3.5322    1.4276   -0.3307 C   0  0  0  0  0  0  0  0  0  0  0  0
    3.4191    2.8152   -0.3444 C   0  0  0  0  0  0  0  0  0  0  0  0
    4.4776    3.6325    0.0030 C   0  0  0  0  0  0  0  0  0  0  0  0
    5.6937    3.1020    0.3789 C   0  0  0  0  0  0  0  0  0  0  0  0
    6.7480    3.9210    0.7246 C   0  0  0  0  0  0  0  0  0  0  0  0
    7.9770    3.4085    1.1045 C   0  0  0  0  0  0  0  0  0  0  0  0
    8.0942    2.0350    1.1198 C   0  0  0  0  0  0  0  0  0  0  0  0
    9.3268    1.5272    1.5009 C   0  0  0  0  0  0  0  0  0  0  0  0
    9.4838    0.1579    1.5288 C   0  0  0  0  0  0  0  0  0  0  0  0
    8.4462   -0.6844    1.1880 C   0  0  0  0  0  0  0  0  0  0  0  0
    7.2226   -0.1814    0.8096 C   0  0  0  0  0  0  0  0  0  0  0  0
    6.1592   -0.9896    0.4610 C   0  0  0  0  0  0  0  0  0  0  0  0
    4.9253   -0.4545    0.0797 C   0  0  0  0  0  0  0  0  0  0  0  0
    4.7545    0.9133    0.0475 C   0  0  0  0  0  0  0  0  0  0  0  0
    5.8279    1.7157    0.3993 C   0  0  0  0  0  0  0  0  0  0  0  0
    7.0480    1.1850    0.7761 C   0  0  0  0  0  0  0  0  0  0  0  0
   -0.6935   -1.0527   -0.5038 C   0  0  0  0  0  0  0  0  0  0  0  0
   -1.7657   -1.8896   -0.8336 C   0  0  0  0  0  0  0  0  0  0  0  0
   -3.1325    4.3043    0.3604 H   0  0  0  0  0  0  0  0  0  0  0  0
   -4.6759    3.4989   -0.1606 H   0  0  0  0  0  0  0  0  0  0  0  0
   -3.1217    2.5991   -0.1576 H   0  0  0  0  0  0  0  0  0  0  0  0
   -4.5480    3.9848    2.2091 H   0  0  0  0  0  0  0  0  0  0  0  0
   -3.0162    3.1652    2.4599 H   0  0  0  0  0  0  0  0  0  0  0  0
   -5.8104    1.9365    2.0378 H   0  0  0  0  0  0  0  0  0  0  0  0
   -4.7375    1.9397    3.4200 H   0  0  0  0  0  0  0  0  0  0  0  0
   -4.8628   -0.2146    2.5800 H   0  0  0  0  0  0  0  0  0  0  0  0
   -3.2042    0.3959    2.6552 H   0  0  0  0  0  0  0  0  0  0  0  0
   -3.0051    0.3750    0.1601 H   0  0  0  0  0  0  0  0  0  0  0  0
   -4.4997   -0.8074   -1.1728 H   0  0  0  0  0  0  0  0  0  0  0  0
   -5.7169   -0.9944    0.1961 H   0  0  0  0  0  0  0  0  0  0  0  0
   -4.9988    1.5228   -1.4102 H   0  0  0  0  0  0  0  0  0  0  0  0
   -6.3157    1.4079   -0.1017 H   0  0  0  0  0  0  0  0  0  0  0  0
   -6.3736    0.4566   -1.6209 H   0  0  0  0  0  0  0  0  0  0  0  0
   -4.0814   -2.0219    1.5920 H   0  0  0  0  0  0  0  0  0  0  0  0
   -2.3866   -1.3674    1.7057 H   0  0  0  0  0  0  0  0  0  0  0  0
   -5.4626   -3.3569    0.2170 H   0  0  0  0  0  0  0  0  0  0  0  0
   -5.0584   -5.5262   -3.4419 H   0  0  0  0  0  0  0  0  0  0  0  0
   -2.8424   -4.4604   -3.7991 H   0  0  0  0  0  0  0  0  0  0  0  0
   -0.6665   -3.1619   -3.7501 H   0  0  0  0  0  0  0  0  0  0  0  0
    1.2578   -1.6491   -3.1415 H   0  0  0  0  0  0  0  0  0  0  0  0
    2.4932    3.2662   -0.6298 H   0  0  0  0  0  0  0  0  0  0  0  0
    4.3929    4.7115   -0.0067 H   0  0  0  0  0  0  0  0  0  0  0  0
    6.6030    4.9942    0.6956 H   0  0  0  0  0  0  0  0  0  0  0  0
    8.7723    4.0918    1.3662 H   0  0  0  0  0  0  0  0  0  0  0  0
   10.1451    2.1780    1.7693 H   0  0  0  0  0  0  0  0  0  0  0  0
   10.4330   -0.2672    1.8215 H   0  0  0  0  0  0  0  0  0  0  0  0
    8.5738   -1.7450    1.2115 H   0  0  0  0  0  0  0  0  0  0  0  0
    6.3129   -2.0583    0.4925 H   0  0  0  0  0  0  0  0  0  0  0  0
    4.0933   -1.0858   -0.1932 H   0  0  0  0  0  0  0  0  0  0  0  0
   -0.6925   -0.4602    0.4007 H   0  0  0  0  0  0  0  0  0  0  0  0
  1  2  1  0
  2  3  1  0
  3  4  1  0
  4  5  1  0
  5  6  1  0
  6  7  1  0
  5  8  1  0
  8  9  1  0
  9 10  1  0
 10 11  2  0
 11 12  1  0
 12 13  1  0
 13 14  3  0
 12 15  2  0
 15 16  1  0
 16 17  2  0
 17 18  1  0
 18 19  2  0
 19 20  1  0
 20 21  2  0
 21 22  1  0
 22 23  3  0
 23 24  1  0
 24 25  2  0
 25 26  1  0
 26 27  2  0
 27 28  1  0
 28 29  2  0
 29 30  1  0
 30 31  2  0
 31 32  1  0
 32 33  2  0
 33 34  1  0
 34 35  2  0
 35 36  1  0
 36 37  2  0
 37 38  1  0
 38 39  2  0
 21 40  1  0
 40 41  2  0
 41  9  1  0
 17 10  1  0
 41 18  1  0
 37 24  1  0
 38 27  1  0
 39 30  1  0
 39 34  1  0
  1 42  1  0
  1 43  1  0
  1 44  1  0
  2 45  1  0
  2 46  1  0
  3 47  1  0
  3 48  1  0
  4 49  1  0
  4 50  1  0
  5 51  1  0
  6 52  1  0
  6 53  1  0
  7 54  1  0
  7 55  1  0
  7 56  1  0
  8 57  1  0
  8 58  1  0
 11 59  1  0
 15 60  1  0
 16 61  1  0
 19 62  1  0
 20 63  1  0
 25 64  1  0
 26 65  1  0
 28 66  1  0
 29 67  1  0
 31 68  1  0
 32 69  1  0
 33 70  1  0
 35 71  1  0
 36 72  1  0
 40 73  1  0
M  END
