
     RDKit          3D

 46 48  0  0  0  0  0  0  0  0999 V2000
   -7.0124    0.1864   -0.0791 C   0  0  0  0  0  0  0  0  0  0  0  0
   -6.5992    1.5720   -0.4673 C   0  0  0  0  0  0  0  0  0  0  0  0
   -5.3679    1.4954   -1.1664 O   0  0  0  0  0  0  0  0  0  0  0  0
   -4.2317    0.9763   -0.6064 C   0  0  0  0  0  0  0  0  0  0  0  0
   -4.2954    0.5576    0.5660 O   0  0  0  0  0  0  0  0  0  0  0  0
   -2.9762    0.9293   -1.4028 C   0  0  0  0  0  0  0  0  0  0  0  0
   -2.9462    1.4003   -2.6911 C   0  0  0  0  0  0  0  0  0  0  0  0
   -4.0214    1.9826   -3.4660 N   0  0  0  0  0  0  0  0  0  0  0  0
   -1.3340    1.1384   -3.1722 S   0  0  0  0  0  0  0  0  0  0  0  0
   -0.7309    0.4420   -1.7433 C   0  0  0  0  0  0  0  0  0  0  0  0
    0.6118   -0.0240   -1.4776 N   0  0  0  0  0  0  0  0  0  0  0  0
    1.4464    0.6317   -0.8000 C   0  0  0  0  0  0  0  0  0  0  0  0
    2.8204    0.1495   -0.5310 C   0  0  0  0  0  0  0  0  0  0  0  0
    3.3927   -1.0209   -0.9443 C   0  0  0  0  0  0  0  0  0  0  0  0
    4.6631   -1.2577   -0.5822 C   0  0  0  0  0  0  0  0  0  0  0  0
    5.2778   -0.2984    0.1750 C   0  0  0  0  0  0  0  0  0  0  0  0
    6.6472   -0.3186    0.6926 C   0  0  0  0  0  0  0  0  0  0  0  0
    7.3128    0.5877    1.4408 C   0  0  0  0  0  0  0  0  0  0  0  0
    8.5808    0.3089    1.7792 C   0  0  0  0  0  0  0  0  0  0  0  0
    9.0985   -0.8814    1.3339 C   0  0  0  0  0  0  0  0  0  0  0  0
    7.7915   -1.5556    0.4640 S   0  0  0  0  0  0  0  0  0  0  0  0
    4.0753    0.8895    0.3546 S   0  0  0  0  0  0  0  0  0  0  0  0
   -1.8153    0.4321   -0.9196 C   0  0  0  0  0  0  0  0  0  0  0  0
   -1.6681   -0.1211    0.4592 C   0  0  0  0  0  0  0  0  0  0  0  0
   -1.3409    0.5966    1.4210 O   0  0  0  0  0  0  0  0  0  0  0  0
   -1.9218   -1.4801    0.5796 O   0  0  0  0  0  0  0  0  0  0  0  0
   -1.7983   -2.0760    1.8787 C   0  0  0  0  0  0  0  0  0  0  0  0
   -0.3757   -1.8931    2.3879 C   0  0  0  0  0  0  0  0  0  0  0  0
   -7.9006   -0.1425   -0.6579 H   0  0  0  0  0  0  0  0  0  0  0  0
   -7.2698    0.1046    0.9944 H   0  0  0  0  0  0  0  0  0  0  0  0
   -6.1962   -0.5454   -0.2713 H   0  0  0  0  0  0  0  0  0  0  0  0
   -7.3422    1.9819   -1.1791 H   0  0  0  0  0  0  0  0  0  0  0  0
   -6.5366    2.2776    0.3835 H   0  0  0  0  0  0  0  0  0  0  0  0
   -4.3422    2.9140   -3.1895 H   0  0  0  0  0  0  0  0  0  0  0  0
   -4.3710    1.3945   -4.2390 H   0  0  0  0  0  0  0  0  0  0  0  0
    1.1870    1.5867   -0.3826 H   0  0  0  0  0  0  0  0  0  0  0  0
    2.8087   -1.7409   -1.5599 H   0  0  0  0  0  0  0  0  0  0  0  0
    5.2337   -2.1778   -0.8606 H   0  0  0  0  0  0  0  0  0  0  0  0
    6.8046    1.5289    1.7547 H   0  0  0  0  0  0  0  0  0  0  0  0
    9.2129    0.9918    2.3933 H   0  0  0  0  0  0  0  0  0  0  0  0
   10.1192   -1.2622    1.5216 H   0  0  0  0  0  0  0  0  0  0  0  0
   -2.5343   -1.5626    2.5290 H   0  0  0  0  0  0  0  0  0  0  0  0
   -2.0011   -3.1608    1.7633 H   0  0  0  0  0  0  0  0  0  0  0  0
   -0.3123   -0.9068    2.8921 H   0  0  0  0  0  0  0  0  0  0  0  0
   -0.1460   -2.7063    3.1140 H   0  0  0  0  0  0  0  0  0  0  0  0
    0.3032   -1.9239    1.5110 H   0  0  0  0  0  0  0  0  0  0  0  0
  1  2  1  0
  2  3  1  0
  3  4  1  0
  4  5  2  0
  4  6  1  0
  6  7  2  0
  7  8  1  0
  7  9  1  0
  9 10  1  0
 10 11  1  0
 11 12  2  0
 12 13  1  0
 13 14  2  0
 14 15  1  0
 15 16  2  0
 16 17  1  0
 17 18  2  0
 18 19  1  0
 19 20  2  0
 20 21  1  0
 16 22  1  0
 10 23  2  0
 23 24  1  0
 24 25  2  0
 24 26  1  0
 26 27  1  0
 27 28  1  0
 23  6  1  0
 22 13  1  0
 21 17  1  0
  1 29  1  0
  1 30  1  0
  1 31  1  0
  2 32  1  0
  2 33  1  0
  8 34  1  0
  8 35  1  0
 12 36  1  0
 14 37  1  0
 15 38  1  0
 18 39  1  0
 19 40  1  0
 20 41  1  0
 27 42  1  0
 27 43  1  0
 28 44  1  0
 28 45  1  0
 28 46  1  0
M  END
