
     RDKit          3D

 30 31  0  0  0  0  0  0  0  0999 V2000
    3.4211   -0.7966    2.1910 O   0  0  0  0  0  0  0  0  0  0  0  0
    3.8395   -0.4801    0.9117 C   0  0  0  0  0  0  0  0  0  0  0  0
    5.1925   -0.4568    0.6216 C   0  0  0  0  0  0  0  0  0  0  0  0
    5.5712   -0.1352   -0.6713 C   0  0  0  0  0  0  0  0  0  0  0  0
    4.6609    0.1544   -1.6504 C   0  0  0  0  0  0  0  0  0  0  0  0
    3.3065    0.1162   -1.3031 C   0  0  0  0  0  0  0  0  0  0  0  0
    2.8982   -0.1962   -0.0409 C   0  0  0  0  0  0  0  0  0  0  0  0
    1.4917   -0.2383    0.3290 C   0  0  0  0  0  0  0  0  0  0  0  0
    0.5999    0.0278   -0.5624 N   0  0  0  0  0  0  0  0  0  0  0  0
   -0.7406   -0.0161   -0.1950 N   0  0  0  0  0  0  0  0  0  0  0  0
   -1.6845    0.5718   -0.8288 C   0  0  0  0  0  0  0  0  0  0  0  0
   -3.0569    0.4577   -0.3530 C   0  0  0  0  0  0  0  0  0  0  0  0
   -4.1018    1.0818   -1.0161 C   0  0  0  0  0  0  0  0  0  0  0  0
   -5.3881    0.9552   -0.5419 C   0  0  0  0  0  0  0  0  0  0  0  0
   -5.6474    0.2134    0.5869 C   0  0  0  0  0  0  0  0  0  0  0  0
   -4.6249   -0.4171    1.2643 C   0  0  0  0  0  0  0  0  0  0  0  0
   -3.3533   -0.2812    0.7799 C   0  0  0  0  0  0  0  0  0  0  0  0
   -2.2575   -0.8948    1.4165 O   0  0  0  0  0  0  0  0  0  0  0  0
    4.1019   -1.0062    2.8965 H   0  0  0  0  0  0  0  0  0  0  0  0
    5.9253   -0.6842    1.3880 H   0  0  0  0  0  0  0  0  0  0  0  0
    6.6171   -0.1050   -0.9424 H   0  0  0  0  0  0  0  0  0  0  0  0
    4.8898    0.4085   -2.6616 H   0  0  0  0  0  0  0  0  0  0  0  0
    2.5588    0.3402   -2.0539 H   0  0  0  0  0  0  0  0  0  0  0  0
    1.1785   -0.4870    1.3323 H   0  0  0  0  0  0  0  0  0  0  0  0
   -1.4446    1.1385   -1.7006 H   0  0  0  0  0  0  0  0  0  0  0  0
   -3.9149    1.6731   -1.9114 H   0  0  0  0  0  0  0  0  0  0  0  0
   -6.2298    1.4274   -1.0320 H   0  0  0  0  0  0  0  0  0  0  0  0
   -6.6590    0.0899    0.9944 H   0  0  0  0  0  0  0  0  0  0  0  0
   -4.7672   -1.0077    2.1483 H   0  0  0  0  0  0  0  0  0  0  0  0
   -2.3823   -1.4535    2.2505 H   0  0  0  0  0  0  0  0  0  0  0  0
  1  2  1  0
  2  3  2  0
  3  4  1  0
  4  5  2  0
  5  6  1  0
  6  7  2  0
  7  8  1  0
  8  9  2  0
  9 10  1  0
 10 11  2  0
 11 12  1  0
 12 13  2  0
 13 14  1  0
 14 15  2  0
 15 16  1  0
 16 17  2  0
 17 18  1  0
  7  2  1  0
 17 12  1  0
  1 19  1  0
  3 20  1  0
  4 21  1  0
  5 22  1  0
  6 23  1  0
  8 24  1  0
 11 25  1  0
 13 26  1  0
 14 27  1  0
 15 28  1  0
 16 29  1  0
 18 30  1  0
M  END
