
     RDKit          3D

 25 27  0  0  0  0  0  0  0  0999 V2000
   -0.0879    2.8315    0.0730 O   0  0  0  0  0  0  0  0  0  0  0  0
   -0.0678    1.3812    0.1585 B   0  0  0  0  0  0  0  0  0  0  0  0
    1.2936    0.6186    0.1621 C   0  0  0  0  0  0  0  0  0  0  0  0
    2.4981    1.3061    0.2715 C   0  0  0  0  0  0  0  0  0  0  0  0
    3.6701    0.6101    0.2715 C   0  0  0  0  0  0  0  0  0  0  0  0
    3.6933   -0.7656    0.1652 C   0  0  0  0  0  0  0  0  0  0  0  0
    2.4909   -1.4334    0.0573 C   0  0  0  0  0  0  0  0  0  0  0  0
    1.2698   -0.7598    0.0534 C   0  0  0  0  0  0  0  0  0  0  0  0
    0.0427   -1.4835   -0.0600 N   0  0  0  0  0  0  0  0  0  0  0  0
   -1.2337   -0.8599   -0.0704 C   0  0  0  0  0  0  0  0  0  0  0  0
   -2.4052   -1.5977   -0.1823 C   0  0  0  0  0  0  0  0  0  0  0  0
   -3.6400   -0.9884   -0.1920 C   0  0  0  0  0  0  0  0  0  0  0  0
   -3.7628    0.3824   -0.0907 C   0  0  0  0  0  0  0  0  0  0  0  0
   -2.5961    1.1134    0.0204 C   0  0  0  0  0  0  0  0  0  0  0  0
   -1.3632    0.5185    0.0312 C   0  0  0  0  0  0  0  0  0  0  0  0
    0.1385    3.1677   -0.8400 H   0  0  0  0  0  0  0  0  0  0  0  0
    2.4143    2.3808    0.3515 H   0  0  0  0  0  0  0  0  0  0  0  0
    4.5977    1.1682    0.3580 H   0  0  0  0  0  0  0  0  0  0  0  0
    4.6288   -1.3101    0.1660 H   0  0  0  0  0  0  0  0  0  0  0  0
    2.4908   -2.5279   -0.0281 H   0  0  0  0  0  0  0  0  0  0  0  0
    0.1331   -2.5379   -0.1381 H   0  0  0  0  0  0  0  0  0  0  0  0
   -2.2771   -2.6836   -0.2612 H   0  0  0  0  0  0  0  0  0  0  0  0
   -4.5432   -1.5897   -0.2809 H   0  0  0  0  0  0  0  0  0  0  0  0
   -4.7317    0.8822   -0.0966 H   0  0  0  0  0  0  0  0  0  0  0  0
   -2.6532    2.1766    0.1008 H   0  0  0  0  0  0  0  0  0  0  0  0
  1  2  1  0
  2  3  1  0
  3  4  2  0
  4  5  1  0
  5  6  2  0
  6  7  1  0
  7  8  2  0
  8  9  1  0
  9 10  1  0
 10 11  2  0
 11 12  1  0
 12 13  2  0
 13 14  1  0
 14 15  2  0
 15  2  1  0
  8  3  1  0
 15 10  1  0
  1 16  1  0
  4 17  1  0
  5 18  1  0
  6 19  1  0
  7 20  1  0
  9 21  1  0
 11 22  1  0
 12 23  1  0
 13 24  1  0
 14 25  1  0
M  END
