
     RDKit          3D

 46 50  0  0  0  0  0  0  0  0999 V2000
   -6.7749    1.1593   -1.9375 C   0  0  0  0  0  0  0  0  0  0  0  0
   -5.3520    0.7288   -1.9074 C   0  0  0  0  0  0  0  0  0  0  0  0
   -4.9419   -0.4604   -2.4266 C   0  0  0  0  0  0  0  0  0  0  0  0
   -3.6520   -0.9530   -2.2577 C   0  0  0  0  0  0  0  0  0  0  0  0
   -2.7517   -0.2049   -1.5291 C   0  0  0  0  0  0  0  0  0  0  0  0
   -1.5442   -0.7330   -0.9518 C   0  0  0  0  0  0  0  0  0  0  0  0
   -0.3450   -0.1933   -1.1646 C   0  0  0  0  0  0  0  0  0  0  0  0
    0.0660    0.9300   -1.9693 C   0  0  0  0  0  0  0  0  0  0  0  0
    1.2767    1.1973   -1.5706 C   0  0  0  0  0  0  0  0  0  0  0  0
    1.7002    0.2854   -0.5305 C   0  0  0  0  0  0  0  0  0  0  0  0
    2.8766    0.5182    0.2340 C   0  0  0  0  0  0  0  0  0  0  0  0
    4.0574    0.7769    1.0000 C   0  0  0  0  0  0  0  0  0  0  0  0
    5.0476    0.9911    1.6211 C   0  0  0  0  0  0  0  0  0  0  0  0
    6.3486    1.3106    0.9673 C   0  0  0  0  0  0  0  0  0  0  0  0
    7.4437    1.7248    1.6197 C   0  0  0  0  0  0  0  0  0  0  0  0
    7.4577    1.8910    2.9706 C   0  0  0  0  0  0  0  0  0  0  0  0
    6.3235    1.6095    3.6668 C   0  0  0  0  0  0  0  0  0  0  0  0
    5.2117    1.1896    3.0296 C   0  0  0  0  0  0  0  0  0  0  0  0
    0.7244   -0.5628   -0.2829 N   0  0  0  0  0  4  0  0  0  0  0  0
    0.6815   -1.7254    0.6544 B   0  0  0  0  0  4  0  0  0  0  0  0
    1.7023   -2.6581    0.2872 F   0  0  0  0  0  0  0  0  0  0  0  0
    0.9549   -1.1575    2.0056 F   0  0  0  0  0  0  0  0  0  0  0  0
   -0.7142   -2.3521    0.7063 N   0  0  0  0  0  0  0  0  0  0  0  0
   -1.1647   -3.3687    1.5111 C   0  0  0  0  0  0  0  0  0  0  0  0
   -0.2285   -4.3310    2.6517 Cl  0  0  0  0  0  0  0  0  0  0  0  0
   -2.5087   -3.5248    1.3238 C   0  0  0  0  0  0  0  0  0  0  0  0
   -2.8481   -2.5830    0.3962 C   0  0  0  0  0  0  0  0  0  0  0  0
   -1.7247   -1.8472    0.0074 C   0  0  0  0  0  0  0  0  0  0  0  0
   -3.1826    1.0309   -1.0083 C   0  0  0  0  0  0  0  0  0  0  0  0
   -4.4658    1.5069   -1.1852 C   0  0  0  0  0  0  0  0  0  0  0  0
   -7.3249    0.5051   -1.1640 H   0  0  0  0  0  0  0  0  0  0  0  0
   -7.2786    1.0440   -2.8838 H   0  0  0  0  0  0  0  0  0  0  0  0
   -6.8755    2.1956   -1.5377 H   0  0  0  0  0  0  0  0  0  0  0  0
   -5.6328   -1.0945   -3.0126 H   0  0  0  0  0  0  0  0  0  0  0  0
   -3.3218   -1.8933   -2.6717 H   0  0  0  0  0  0  0  0  0  0  0  0
   -0.4809    1.4422   -2.7718 H   0  0  0  0  0  0  0  0  0  0  0  0
    1.8643    2.0236   -1.9812 H   0  0  0  0  0  0  0  0  0  0  0  0
    6.2914    1.1543   -0.1082 H   0  0  0  0  0  0  0  0  0  0  0  0
    8.3580    1.9372    1.0464 H   0  0  0  0  0  0  0  0  0  0  0  0
    8.3392    2.3039    3.4913 H   0  0  0  0  0  0  0  0  0  0  0  0
    6.3272    1.7501    4.7426 H   0  0  0  0  0  0  0  0  0  0  0  0
    4.2783    0.9446    3.5677 H   0  0  0  0  0  0  0  0  0  0  0  0
   -3.1589   -4.2480    1.8551 H   0  0  0  0  0  0  0  0  0  0  0  0
   -3.8333   -2.3799   -0.0469 H   0  0  0  0  0  0  0  0  0  0  0  0
   -2.4623    1.6493   -0.4332 H   0  0  0  0  0  0  0  0  0  0  0  0
   -4.7631    2.4706   -0.7711 H   0  0  0  0  0  0  0  0  0  0  0  0
  1  2  1  0
  2  3  2  0
  3  4  1  0
  4  5  2  0
  5  6  1  0
  6  7  2  0
  7  8  1  0
  8  9  2  0
  9 10  1  0
 10 11  1  0
 11 12  3  0
 12 13  1  0
 13 14  2  0
 14 15  1  0
 15 16  2  0
 16 17  1  0
 17 18  2  0
 10 19  2  0
 19 20  1  0
 20 21  1  0
 20 22  1  0
 20 23  1  0
 23 24  1  0
 24 25  1  0
 24 26  2  0
 26 27  1  0
 27 28  2  0
  5 29  1  0
 29 30  2  0
 30  2  1  0
 28  6  1  0
 19  7  1  0
 28 23  1  0
 18 13  1  0
  1 31  1  0
  1 32  1  0
  1 33  1  0
  3 34  1  0
  4 35  1  0
  8 36  1  0
  9 37  1  0
 14 38  1  0
 15 39  1  0
 16 40  1  0
 17 41  1  0
 18 42  1  0
 26 43  1  0
 27 44  1  0
 29 45  1  0
 30 46  1  0
M  CHG  2  19   1  20  -1
M  END
