
     RDKit          3D

 34 37  0  0  0  0  0  0  0  0999 V2000
    3.2673    2.6813   -1.6330 C   0  0  0  0  0  0  0  0  0  0  0  0
    2.8375    1.4921   -0.8367 C   0  0  0  0  0  0  0  0  0  0  0  0
    1.5235    1.2296   -0.7374 C   0  0  0  0  0  0  0  0  0  0  0  0
    1.0596    0.1035    0.0130 C   0  0  0  0  0  0  0  0  0  0  0  0
   -0.3822   -0.1609    0.1056 C   0  0  0  0  0  0  0  0  0  0  0  0
   -0.8447   -1.2521    0.8320 C   0  0  0  0  0  0  0  0  0  0  0  0
   -2.1703   -1.5637    0.9646 C   0  0  0  0  0  0  0  0  0  0  0  0
   -3.0901   -0.7356    0.3336 C   0  0  0  0  0  0  0  0  0  0  0  0
   -4.4512   -0.9774    0.4157 C   0  0  0  0  0  0  0  0  0  0  0  0
   -5.3570   -0.1509   -0.2133 C   0  0  0  0  0  0  0  0  0  0  0  0
   -4.9344    0.9393   -0.9414 C   0  0  0  0  0  0  0  0  0  0  0  0
   -3.5814    1.1754   -1.0200 C   0  0  0  0  0  0  0  0  0  0  0  0
   -2.6493    0.3515   -0.3913 C   0  0  0  0  0  0  0  0  0  0  0  0
   -1.2892    0.6500   -0.5126 C   0  0  0  0  0  0  0  0  0  0  0  0
    1.8425   -0.6662    0.5950 O   0  0  0  0  0  3  0  0  0  0  0  0
    3.2889   -0.4952    0.5673 B   0  0  0  0  0  4  0  0  0  0  0  0
    3.9974   -1.7216    0.0530 O   0  0  0  0  0  0  0  0  0  0  0  0
    4.0357   -2.6096    1.1219 C   0  0  0  0  0  0  0  0  0  0  0  0
    4.1437   -3.8567    0.9842 O   0  0  0  0  0  0  0  0  0  0  0  0
    3.9290   -1.8072    2.3316 C   0  0  0  0  0  0  0  0  0  0  0  0
    3.9318   -2.3045    3.4937 O   0  0  0  0  0  0  0  0  0  0  0  0
    3.8299   -0.4690    1.9719 O   0  0  0  0  0  0  0  0  0  0  0  0
    3.7047    0.6643   -0.2093 O   0  0  0  0  0  0  0  0  0  0  0  0
    3.3253    3.5963   -1.0314 H   0  0  0  0  0  0  0  0  0  0  0  0
    4.2694    2.4861   -2.1143 H   0  0  0  0  0  0  0  0  0  0  0  0
    2.5762    2.8599   -2.4822 H   0  0  0  0  0  0  0  0  0  0  0  0
    0.8848    1.9223   -1.2571 H   0  0  0  0  0  0  0  0  0  0  0  0
   -0.0792   -1.8719    1.3090 H   0  0  0  0  0  0  0  0  0  0  0  0
   -2.5094   -2.4256    1.5399 H   0  0  0  0  0  0  0  0  0  0  0  0
   -4.7690   -1.8534    1.0021 H   0  0  0  0  0  0  0  0  0  0  0  0
   -6.4155   -0.3804   -0.1208 H   0  0  0  0  0  0  0  0  0  0  0  0
   -5.6600    1.5992   -1.4437 H   0  0  0  0  0  0  0  0  0  0  0  0
   -3.2439    2.0344   -1.5935 H   0  0  0  0  0  0  0  0  0  0  0  0
   -1.0207    1.5170   -1.0960 H   0  0  0  0  0  0  0  0  0  0  0  0
  1  2  1  0
  2  3  2  0
  3  4  1  0
  4  5  1  0
  5  6  2  0
  6  7  1  0
  7  8  2  0
  8  9  1  0
  9 10  2  0
 10 11  1  0
 11 12  2  0
 12 13  1  0
 13 14  2  0
  4 15  2  0
 15 16  1  0
 16 17  1  0
 17 18  1  0
 18 19  2  0
 18 20  1  0
 20 21  2  0
 20 22  1  0
 16 23  1  0
 23  2  1  0
 14  5  1  0
 22 16  1  0
 13  8  1  0
  1 24  1  0
  1 25  1  0
  1 26  1  0
  3 27  1  0
  6 28  1  0
  7 29  1  0
  9 30  1  0
 10 31  1  0
 11 32  1  0
 12 33  1  0
 14 34  1  0
M  CHG  2  15   1  16  -1
M  END
