
     RDKit          3D

 56 60  0  0  0  0  0  0  0  0999 V2000
    6.0920   -4.8704   -1.9882 C   0  0  0  0  0  0  0  0  0  0  0  0
    6.2281   -4.3153   -0.6671 O   0  0  0  0  0  0  0  0  0  0  0  0
    5.4575   -3.2123   -0.3044 C   0  0  0  0  0  0  0  0  0  0  0  0
    4.5768   -2.6452   -1.2293 C   0  0  0  0  0  0  0  0  0  0  0  0
    3.8159   -1.5666   -0.8844 C   0  0  0  0  0  0  0  0  0  0  0  0
    3.8972   -0.9808    0.4291 C   0  0  0  0  0  0  0  0  0  0  0  0
    3.0656    0.1505    0.6515 N   0  0  0  0  0  0  0  0  0  0  0  0
    3.4935    1.4032    0.7983 C   0  0  0  0  0  0  0  0  0  0  0  0
    4.7480    2.0523    0.8637 C   0  0  0  0  0  0  0  0  0  0  0  0
    4.8457    3.3894    0.9943 C   0  0  0  0  0  0  0  0  0  0  0  0
    3.7837    4.2750    1.0734 C   0  0  0  0  0  0  0  0  0  0  0  0
    2.5243    3.6265    1.0108 C   0  0  0  0  0  0  0  0  0  0  0  0
    2.4185    2.2906    0.8811 C   0  0  0  0  0  0  0  0  0  0  0  0
    1.3174    1.4241    0.7656 C   0  0  0  0  0  0  0  0  0  0  0  0
   -0.0330    1.6635    0.7193 C   0  0  0  0  0  0  0  0  0  0  0  0
   -1.0130    0.7459    0.5521 C   0  0  0  0  0  0  0  0  0  0  0  0
   -2.3503    0.9394    0.3141 C   0  0  0  0  0  0  0  0  0  0  0  0
   -3.5782    1.1504    0.0904 C   0  0  0  0  0  0  0  0  0  0  0  0
   -4.8545    1.3067   -0.1316 C   0  0  0  0  0  0  0  0  0  0  0  0
   -5.3373    2.5414   -0.4314 C   0  0  0  0  0  0  0  0  0  0  0  0
   -6.6151    2.9904   -0.7068 C   0  0  0  0  0  0  0  0  0  0  0  0
   -7.7085    3.3855   -0.9590 N   0  0  0  0  0  0  0  0  0  0  0  0
   -4.2902    3.6173   -0.6300 C   0  0  0  0  0  0  0  0  0  0  0  0
   -3.4918    4.4116   -0.7722 N   0  0  0  0  0  0  0  0  0  0  0  0
   -5.8817    0.2365   -0.1501 C   0  0  0  0  0  0  0  0  0  0  0  0
   -6.8869    0.1697   -1.1182 C   0  0  0  0  0  0  0  0  0  0  0  0
   -7.7784   -0.8672   -1.1227 C   0  0  0  0  0  0  0  0  0  0  0  0
   -7.7376   -1.8770   -0.2023 C   0  0  0  0  0  0  0  0  0  0  0  0
   -6.7429   -1.8517    0.7911 C   0  0  0  0  0  0  0  0  0  0  0  0
   -5.8673   -0.7987    0.7669 C   0  0  0  0  0  0  0  0  0  0  0  0
   -0.5362   -0.6187    0.4233 C   0  0  0  0  0  0  0  0  0  0  0  0
    0.7880   -0.8755    0.4659 C   0  0  0  0  0  0  0  0  0  0  0  0
    1.7177    0.1229    0.6316 C   0  0  0  0  0  0  0  0  0  0  0  0
    4.7544   -1.5512    1.2899 C   0  0  0  0  0  0  0  0  0  0  0  0
    5.5301   -2.6560    0.9322 C   0  0  0  0  0  0  0  0  0  0  0  0
    6.2727   -4.0740   -2.7293 H   0  0  0  0  0  0  0  0  0  0  0  0
    5.0267   -5.2053   -2.1302 H   0  0  0  0  0  0  0  0  0  0  0  0
    6.7552   -5.7387   -2.1485 H   0  0  0  0  0  0  0  0  0  0  0  0
    4.5403   -3.1107   -2.2099 H   0  0  0  0  0  0  0  0  0  0  0  0
    3.1212   -1.0927   -1.5598 H   0  0  0  0  0  0  0  0  0  0  0  0
    5.6090    1.4119    0.8084 H   0  0  0  0  0  0  0  0  0  0  0  0
    5.8275    3.8375    1.0387 H   0  0  0  0  0  0  0  0  0  0  0  0
    3.8538    5.3401    1.1734 H   0  0  0  0  0  0  0  0  0  0  0  0
    1.6621    4.2691    1.0654 H   0  0  0  0  0  0  0  0  0  0  0  0
   -0.2939    2.7461    0.8512 H   0  0  0  0  0  0  0  0  0  0  0  0
   -2.2176    2.3356    0.0403 H   0  0  0  0  0  0  0  0  0  0  0  0
   -3.6534   -0.2901    0.2644 H   0  0  0  0  0  0  0  0  0  0  0  0
   -6.9598    0.9241   -1.8839 H   0  0  0  0  0  0  0  0  0  0  0  0
   -8.5499   -0.9026   -1.8768 H   0  0  0  0  0  0  0  0  0  0  0  0
   -8.4490   -2.6789   -0.2270 H   0  0  0  0  0  0  0  0  0  0  0  0
   -6.7201   -2.6676    1.5213 H   0  0  0  0  0  0  0  0  0  0  0  0
   -5.0930   -0.7898    1.5523 H   0  0  0  0  0  0  0  0  0  0  0  0
   -1.2978   -1.3784    0.3012 H   0  0  0  0  0  0  0  0  0  0  0  0
    1.1370   -1.8984    0.3809 H   0  0  0  0  0  0  0  0  0  0  0  0
    4.8558   -1.1400    2.3146 H   0  0  0  0  0  0  0  0  0  0  0  0
    6.2218   -3.1035    1.6488 H   0  0  0  0  0  0  0  0  0  0  0  0
  1  2  1  0
  2  3  1  0
  3  4  2  0
  4  5  1  0
  5  6  2  0
  6  7  1  0
  7  8  1  0
  8  9  2  0
  9 10  1  0
 10 11  2  0
 11 12  1  0
 12 13  2  0
 13 14  1  0
 14 15  2  0
 15 16  1  0
 16 17  1  0
 17 18  2  0
 18 19  1  0
 19 20  2  0
 20 21  1  0
 21 22  3  0
 20 23  1  0
 23 24  3  0
 19 25  1  0
 25 26  2  0
 26 27  1  0
 27 28  2  0
 28 29  1  0
 29 30  2  0
 16 31  2  0
 31 32  1  0
 32 33  2  0
  6 34  1  0
 34 35  2  0
 35  3  1  0
 33  7  1  0
 13  8  1  0
 33 14  1  0
 30 25  1  0
  1 36  1  0
  1 37  1  0
  1 38  1  0
  4 39  1  0
  5 40  1  0
  9 41  1  0
 10 42  1  0
 11 43  1  0
 12 44  1  0
 15 45  1  0
 17 46  1  0
 18 47  1  0
 26 48  1  0
 27 49  1  0
 28 50  1  0
 29 51  1  0
 30 52  1  0
 31 53  1  0
 32 54  1  0
 34 55  1  0
 35 56  1  0
M  END
