
     RDKit          3D

 56 58  0  0  0  0  0  0  0  0999 V2000
   -6.2720   -0.3582    0.6414 C   0  0  0  0  0  0  0  0  0  0  0  0
   -5.1673   -1.5474   -0.0980 S   0  0  0  0  0  0  0  0  0  0  0  0
   -3.5119   -0.8187   -0.0909 C   0  0  0  0  0  0  0  0  0  0  0  0
   -2.4836   -1.5763    0.1735 C   0  0  0  0  0  0  0  0  0  0  0  0
   -1.1384   -1.0431    0.1919 C   0  0  0  0  0  0  0  0  0  0  0  0
   -0.8361    0.2719   -0.0609 C   0  0  0  0  0  0  0  0  0  0  0  0
    0.4833    0.7357   -0.0300 C   0  0  0  0  0  0  0  0  0  0  0  0
    1.5334   -0.0915    0.2517 C   0  0  0  0  0  0  0  0  0  0  0  0
    2.8999    0.3541    0.2913 C   0  0  0  0  0  0  0  0  0  0  0  0
    3.3055    1.5850    0.0676 C   0  0  0  0  0  0  0  0  0  0  0  0
    5.0420    2.0192    0.1462 S   0  0  0  0  0  0  0  0  0  0  0  0
    5.9880    0.6739    0.8763 C   0  0  0  0  0  0  0  0  0  0  0  0
    7.2765    0.5681    0.6471 C   0  0  0  0  0  0  0  0  0  0  0  0
    8.0475   -0.5352    1.2472 C   0  0  0  0  0  0  0  0  0  0  0  0
    8.9223   -1.1949    0.2332 C   0  0  0  0  0  0  0  0  0  0  0  0
    9.6144   -0.2637   -0.7021 C   0  0  0  0  0  0  0  0  0  0  0  0
    8.6954    0.7819   -1.2906 C   0  0  0  0  0  0  0  0  0  0  0  0
    7.9620    1.5506   -0.2110 C   0  0  0  0  0  0  0  0  0  0  0  0
    1.2394   -1.4293    0.5101 C   0  0  0  0  0  0  0  0  0  0  0  0
   -0.0552   -1.8854    0.4801 C   0  0  0  0  0  0  0  0  0  0  0  0
   -7.2350    0.1696   -0.0743 C   0  0  0  0  0  0  0  0  0  0  0  0
   -8.2048    1.1708    0.4606 C   0  0  0  0  0  0  0  0  0  0  0  0
   -9.5808    0.6065    0.3389 C   0  0  0  0  0  0  0  0  0  0  0  0
   -9.8286   -0.1964   -0.8912 C   0  0  0  0  0  0  0  0  0  0  0  0
   -8.8128   -0.0332   -1.9696 C   0  0  0  0  0  0  0  0  0  0  0  0
   -7.3977   -0.2273   -1.4940 C   0  0  0  0  0  0  0  0  0  0  0  0
   -6.1834   -0.0403    1.6868 H   0  0  0  0  0  0  0  0  0  0  0  0
   -3.4643    0.2137   -0.3080 H   0  0  0  0  0  0  0  0  0  0  0  0
   -2.6363   -2.6192    0.3824 H   0  0  0  0  0  0  0  0  0  0  0  0
   -1.6353    0.9661   -0.2892 H   0  0  0  0  0  0  0  0  0  0  0  0
    0.6673    1.7736   -0.2350 H   0  0  0  0  0  0  0  0  0  0  0  0
    3.6845   -0.3663    0.5232 H   0  0  0  0  0  0  0  0  0  0  0  0
    2.5827    2.3352   -0.1645 H   0  0  0  0  0  0  0  0  0  0  0  0
    5.4429   -0.0242    1.4997 H   0  0  0  0  0  0  0  0  0  0  0  0
    8.6955   -0.0755    2.0436 H   0  0  0  0  0  0  0  0  0  0  0  0
    7.3954   -1.3170    1.6894 H   0  0  0  0  0  0  0  0  0  0  0  0
    9.7286   -1.7390    0.8076 H   0  0  0  0  0  0  0  0  0  0  0  0
    8.3546   -1.9872   -0.2811 H   0  0  0  0  0  0  0  0  0  0  0  0
   10.4860    0.2260   -0.2469 H   0  0  0  0  0  0  0  0  0  0  0  0
    9.9990   -0.8659   -1.5577 H   0  0  0  0  0  0  0  0  0  0  0  0
    9.3358    1.5123   -1.8227 H   0  0  0  0  0  0  0  0  0  0  0  0
    7.9719    0.3808   -1.9992 H   0  0  0  0  0  0  0  0  0  0  0  0
    8.7210    2.0699    0.4369 H   0  0  0  0  0  0  0  0  0  0  0  0
    7.2877    2.2657   -0.7032 H   0  0  0  0  0  0  0  0  0  0  0  0
    2.0759   -2.0963    0.7364 H   0  0  0  0  0  0  0  0  0  0  0  0
   -0.2823   -2.9247    0.6811 H   0  0  0  0  0  0  0  0  0  0  0  0
   -8.0218    1.3935    1.5403 H   0  0  0  0  0  0  0  0  0  0  0  0
   -8.1244    2.0737   -0.1696 H   0  0  0  0  0  0  0  0  0  0  0  0
   -9.7595   -0.0690    1.2209 H   0  0  0  0  0  0  0  0  0  0  0  0
  -10.3026    1.4449    0.4576 H   0  0  0  0  0  0  0  0  0  0  0  0
   -9.9805   -1.2849   -0.6643 H   0  0  0  0  0  0  0  0  0  0  0  0
  -10.8148    0.1434   -1.3183 H   0  0  0  0  0  0  0  0  0  0  0  0
   -8.9428    0.9177   -2.5425 H   0  0  0  0  0  0  0  0  0  0  0  0
   -9.0013   -0.8539   -2.7220 H   0  0  0  0  0  0  0  0  0  0  0  0
   -6.7655    0.4884   -2.0897 H   0  0  0  0  0  0  0  0  0  0  0  0
   -6.9995   -1.2281   -1.7177 H   0  0  0  0  0  0  0  0  0  0  0  0
  1  2  1  0
  2  3  1  0
  3  4  2  0
  4  5  1  0
  5  6  2  0
  6  7  1  0
  7  8  2  0
  8  9  1  0
  9 10  2  0
 10 11  1  0
 11 12  1  0
 12 13  2  3
 13 14  1  0
 14 15  1  0
 15 16  1  0
 16 17  1  0
 17 18  1  0
  8 19  1  0
 19 20  2  0
  1 21  2  3
 21 22  1  0
 22 23  1  0
 23 24  1  0
 24 25  1  0
 25 26  1  0
 20  5  1  0
 26 21  1  0
 18 13  1  0
  1 27  1  0
  3 28  1  0
  4 29  1  0
  6 30  1  0
  7 31  1  0
  9 32  1  0
 10 33  1  0
 12 34  1  0
 14 35  1  0
 14 36  1  0
 15 37  1  0
 15 38  1  0
 16 39  1  0
 16 40  1  0
 17 41  1  0
 17 42  1  0
 18 43  1  0
 18 44  1  0
 19 45  1  0
 20 46  1  0
 22 47  1  0
 22 48  1  0
 23 49  1  0
 23 50  1  0
 24 51  1  0
 24 52  1  0
 25 53  1  0
 25 54  1  0
 26 55  1  0
 26 56  1  0
M  END
