
     RDKit          3D

 88 96  0  0  0  0  0  0  0  0999 V2000
   -7.5476   -1.9990    4.3022 O   0  0  0  0  0  0  0  0  0  0  0  0
   -7.1430   -1.5255    3.2332 C   0  0  0  0  0  0  0  0  0  0  0  0
   -7.8526   -0.9957    2.1374 O   0  0  0  0  0  0  0  0  0  0  0  0
   -6.9596   -0.5857    1.1639 C   0  0  0  0  0  0  0  0  0  0  0  0
   -7.3888    0.0136   -0.1101 C   0  0  0  0  0  0  0  0  0  0  0  0
   -8.7170    0.2088   -0.4154 C   0  0  0  0  0  0  0  0  0  0  0  0
   -9.1885    0.7497   -1.5722 C   0  0  0  0  0  0  0  0  0  0  0  0
   -8.2656    1.1443   -2.5388 C   0  0  0  0  0  0  0  0  0  0  0  0
   -6.9219    0.9667   -2.2735 C   0  0  0  0  0  0  0  0  0  0  0  0
   -6.4673    0.4078   -1.0748 C   0  0  0  0  0  0  0  0  0  0  0  0
   -5.7496   -0.8100    1.5491 N   0  0  0  0  0  0  0  0  0  0  0  0
   -5.7286   -1.4023    2.8402 C   0  0  0  0  0  0  0  0  0  0  0  0
   -4.6380   -1.7611    3.4905 C   0  0  0  0  0  0  0  0  0  0  0  0
   -3.3496   -1.5024    2.8312 C   0  0  0  0  0  0  0  0  0  0  0  0
   -2.3267   -2.4145    2.8086 C   0  0  0  0  0  0  0  0  0  0  0  0
   -1.0980   -2.1456    2.1633 C   0  0  0  0  0  0  0  0  0  0  0  0
   -0.8743   -0.9744    1.5387 C   0  0  0  0  0  0  0  0  0  0  0  0
    0.3244   -0.5621    0.8547 N   0  0  0  0  0  0  0  0  0  0  0  0
    0.7014    0.7830    1.1147 C   0  0  0  0  0  0  0  0  0  0  0  0
    0.7153    1.1875    2.4372 C   0  0  0  0  0  0  0  0  0  0  0  0
    1.0284    2.4895    2.7263 C   0  0  0  0  0  0  0  0  0  0  0  0
    1.3319    3.4166    1.7421 C   0  0  0  0  0  0  0  0  0  0  0  0
    1.7023    4.7755    2.0390 C   0  0  0  0  0  0  0  0  0  0  0  0
    1.1261    5.7749    1.3936 C   0  0  0  0  0  0  0  0  0  0  0  0
    0.1214    5.7349    0.3784 N   0  0  0  0  0  0  0  0  0  0  0  0
   -0.1814    6.9281   -0.0033 C   0  0  0  0  0  0  0  0  0  0  0  0
   -1.1756    7.3053   -1.0311 C   0  0  0  0  0  0  0  0  0  0  0  0
   -1.3738    8.6284   -1.3539 C   0  0  0  0  0  0  0  0  0  0  0  0
   -2.3192    9.0115   -2.3013 C   0  0  0  0  0  0  0  0  0  0  0  0
   -3.0722    8.0339   -2.9280 C   0  0  0  0  0  0  0  0  0  0  0  0
   -2.9032    6.6945   -2.6327 C   0  0  0  0  0  0  0  0  0  0  0  0
   -1.9468    6.3664   -1.6802 C   0  0  0  0  0  0  0  0  0  0  0  0
    0.5653    7.8640    0.6922 O   0  0  0  0  0  0  0  0  0  0  0  0
    1.4065    7.2175    1.5854 C   0  0  0  0  0  0  0  0  0  0  0  0
    2.2372    7.6828    2.3968 O   0  0  0  0  0  0  0  0  0  0  0  0
    1.3155    3.0081    0.4314 C   0  0  0  0  0  0  0  0  0  0  0  0
    0.9928    1.6686    0.1404 C   0  0  0  0  0  0  0  0  0  0  0  0
    1.2238   -1.4019    0.1615 C   0  0  0  0  0  0  0  0  0  0  0  0
    1.7602   -2.4659    0.8819 C   0  0  0  0  0  0  0  0  0  0  0  0
    2.5238   -3.4220    0.3082 C   0  0  0  0  0  0  0  0  0  0  0  0
    2.7774   -3.3261   -1.0461 C   0  0  0  0  0  0  0  0  0  0  0  0
    3.6193   -4.3494   -1.6474 C   0  0  0  0  0  0  0  0  0  0  0  0
    4.8174   -4.5489   -1.1778 C   0  0  0  0  0  0  0  0  0  0  0  0
    5.7151   -5.5377   -1.6967 N   0  0  0  0  0  0  0  0  0  0  0  0
    6.8486   -5.4892   -1.0770 C   0  0  0  0  0  0  0  0  0  0  0  0
    8.0099   -6.3668   -1.3522 C   0  0  0  0  0  0  0  0  0  0  0  0
    7.9119   -7.3334   -2.3180 C   0  0  0  0  0  0  0  0  0  0  0  0
    8.9853   -8.1467   -2.5810 C   0  0  0  0  0  0  0  0  0  0  0  0
   10.1757   -8.0042   -1.8793 C   0  0  0  0  0  0  0  0  0  0  0  0
   10.2482   -7.0289   -0.9171 C   0  0  0  0  0  0  0  0  0  0  0  0
    9.1671   -6.2118   -0.6543 C   0  0  0  0  0  0  0  0  0  0  0  0
    6.8226   -4.4934   -0.1132 O   0  0  0  0  0  0  0  0  0  0  0  0
    5.5673   -3.8701   -0.1350 C   0  0  0  0  0  0  0  0  0  0  0  0
    5.1689   -2.9320    0.5807 O   0  0  0  0  0  0  0  0  0  0  0  0
    2.2735   -2.2976   -1.7957 C   0  0  0  0  0  0  0  0  0  0  0  0
    1.4878   -1.3212   -1.1967 C   0  0  0  0  0  0  0  0  0  0  0  0
   -1.9357   -0.0359    1.5671 C   0  0  0  0  0  0  0  0  0  0  0  0
   -3.1266   -0.3023    2.1947 C   0  0  0  0  0  0  0  0  0  0  0  0
   -9.4487   -0.0932    0.3262 H   0  0  0  0  0  0  0  0  0  0  0  0
  -10.2666    0.8718   -1.7363 H   0  0  0  0  0  0  0  0  0  0  0  0
   -8.6338    1.5752   -3.4645 H   0  0  0  0  0  0  0  0  0  0  0  0
   -6.1808    1.2671   -3.0106 H   0  0  0  0  0  0  0  0  0  0  0  0
   -5.4196    0.2849   -0.8976 H   0  0  0  0  0  0  0  0  0  0  0  0
   -4.7345   -2.2223    4.4624 H   0  0  0  0  0  0  0  0  0  0  0  0
   -2.4391   -3.3698    3.2888 H   0  0  0  0  0  0  0  0  0  0  0  0
   -0.3493   -2.9201    2.1591 H   0  0  0  0  0  0  0  0  0  0  0  0
    0.4856    0.5078    3.2520 H   0  0  0  0  0  0  0  0  0  0  0  0
    1.0479    2.8406    3.7726 H   0  0  0  0  0  0  0  0  0  0  0  0
    2.4518    5.0387    2.7870 H   0  0  0  0  0  0  0  0  0  0  0  0
   -0.7684    9.3849   -0.8469 H   0  0  0  0  0  0  0  0  0  0  0  0
   -2.4675   10.0540   -2.5485 H   0  0  0  0  0  0  0  0  0  0  0  0
   -3.8200    8.2867   -3.6695 H   0  0  0  0  0  0  0  0  0  0  0  0
   -3.5096    5.9323   -3.1373 H   0  0  0  0  0  0  0  0  0  0  0  0
   -1.8024    5.3231   -1.4380 H   0  0  0  0  0  0  0  0  0  0  0  0
    1.5434    3.6930   -0.3712 H   0  0  0  0  0  0  0  0  0  0  0  0
    0.9971    1.4497   -0.9163 H   0  0  0  0  0  0  0  0  0  0  0  0
    1.6257   -2.5071    1.9684 H   0  0  0  0  0  0  0  0  0  0  0  0
    2.8869   -4.2296    0.9385 H   0  0  0  0  0  0  0  0  0  0  0  0
    3.1879   -4.9039   -2.4741 H   0  0  0  0  0  0  0  0  0  0  0  0
    6.9783   -7.4429   -2.8655 H   0  0  0  0  0  0  0  0  0  0  0  0
    8.9031   -8.9127   -3.3465 H   0  0  0  0  0  0  0  0  0  0  0  0
   10.9953   -8.6636   -2.1180 H   0  0  0  0  0  0  0  0  0  0  0  0
   11.1688   -6.9038   -0.3609 H   0  0  0  0  0  0  0  0  0  0  0  0
    9.2783   -5.4585    0.1151 H   0  0  0  0  0  0  0  0  0  0  0  0
    2.4594   -2.1983   -2.8647 H   0  0  0  0  0  0  0  0  0  0  0  0
    1.0672   -0.5274   -1.7768 H   0  0  0  0  0  0  0  0  0  0  0  0
   -1.7418    0.8995    1.0619 H   0  0  0  0  0  0  0  0  0  0  0  0
   -3.9155    0.4459    2.2049 H   0  0  0  0  0  0  0  0  0  0  0  0
  1  2  2  0
  2  3  1  0
  3  4  1  0
  4  5  1  0
  5  6  2  0
  6  7  1  0
  7  8  2  0
  8  9  1  0
  9 10  2  0
  4 11  2  0
 11 12  1  0
 12 13  2  0
 13 14  1  0
 14 15  2  0
 15 16  1  0
 16 17  2  0
 17 18  1  0
 18 19  1  0
 19 20  2  0
 20 21  1  0
 21 22  2  0
 22 23  1  0
 23 24  2  0
 24 25  1  0
 25 26  2  0
 26 27  1  0
 27 28  2  0
 28 29  1  0
 29 30  2  0
 30 31  1  0
 31 32  2  0
 26 33  1  0
 33 34  1  0
 34 35  2  0
 22 36  1  0
 36 37  2  0
 18 38  1  0
 38 39  2  0
 39 40  1  0
 40 41  2  0
 41 42  1  0
 42 43  2  0
 43 44  1  0
 44 45  2  0
 45 46  1  0
 46 47  2  0
 47 48  1  0
 48 49  2  0
 49 50  1  0
 50 51  2  0
 45 52  1  0
 52 53  1  0
 53 54  2  0
 41 55  1  0
 55 56  2  0
 17 57  1  0
 57 58  2  0
 12  2  1  0
 58 14  1  0
 10  5  1  0
 37 19  1  0
 56 38  1  0
 34 24  1  0
 53 43  1  0
 32 27  1  0
 51 46  1  0
  6 59  1  0
  7 60  1  0
  8 61  1  0
  9 62  1  0
 10 63  1  0
 13 64  1  0
 15 65  1  0
 16 66  1  0
 20 67  1  0
 21 68  1  0
 23 69  1  0
 28 70  1  0
 29 71  1  0
 30 72  1  0
 31 73  1  0
 32 74  1  0
 36 75  1  0
 37 76  1  0
 39 77  1  0
 40 78  1  0
 42 79  1  0
 47 80  1  0
 48 81  1  0
 49 82  1  0
 50 83  1  0
 51 84  1  0
 55 85  1  0
 56 86  1  0
 57 87  1  0
 58 88  1  0
M  END
