
     RDKit          3D

 36 36  0  0  0  0  0  0  0  0999 V2000
   -3.3920    0.2141    1.5067 C   0  0  0  0  0  0  0  0  0  0  0  0
   -2.9187    0.1087    0.0689 C   0  0  0  0  0  0  0  0  0  0  0  0
   -3.5454   -1.1347   -0.5118 C   0  0  0  0  0  0  0  0  0  0  0  0
   -3.4275    1.3151   -0.6727 C   0  0  0  0  0  0  0  0  0  0  0  0
   -1.4193    0.0278    0.0141 C   0  0  0  0  0  0  0  0  0  0  0  0
   -0.8043   -1.0316   -0.5282 C   0  0  0  0  0  0  0  0  0  0  0  0
    0.6515   -1.1161   -0.5843 C   0  0  0  0  0  0  0  0  0  0  0  0
    1.1468   -2.1486   -1.1119 O   0  0  0  0  0  0  0  0  0  0  0  0
    1.4582   -0.0358   -0.0444 C   0  0  0  0  0  0  0  0  0  0  0  0
    2.9269   -0.1004   -0.0903 C   0  0  0  0  0  0  0  0  0  0  0  0
    3.4477   -0.2027   -1.5114 C   0  0  0  0  0  0  0  0  0  0  0  0
    3.5848    1.0979    0.5377 C   0  0  0  0  0  0  0  0  0  0  0  0
    3.3447   -1.3128    0.7388 C   0  0  0  0  0  0  0  0  0  0  0  0
    0.8820    1.0199    0.4957 C   0  0  0  0  0  0  0  0  0  0  0  0
   -0.5873    1.0985    0.5490 C   0  0  0  0  0  0  0  0  0  0  0  0
   -1.1228    2.1123    1.0675 O   0  0  0  0  0  0  0  0  0  0  0  0
   -3.4324    1.2721    1.8508 H   0  0  0  0  0  0  0  0  0  0  0  0
   -2.8212   -0.4361    2.1874 H   0  0  0  0  0  0  0  0  0  0  0  0
   -4.4454   -0.1476    1.5135 H   0  0  0  0  0  0  0  0  0  0  0  0
   -3.2118   -1.9988    0.0934 H   0  0  0  0  0  0  0  0  0  0  0  0
   -4.6435   -1.0017   -0.4415 H   0  0  0  0  0  0  0  0  0  0  0  0
   -3.3184   -1.2547   -1.5906 H   0  0  0  0  0  0  0  0  0  0  0  0
   -2.6242    1.8640   -1.1944 H   0  0  0  0  0  0  0  0  0  0  0  0
   -3.9180    2.0528    0.0234 H   0  0  0  0  0  0  0  0  0  0  0  0
   -4.2097    1.0536   -1.4211 H   0  0  0  0  0  0  0  0  0  0  0  0
   -1.4173   -1.8327   -0.9284 H   0  0  0  0  0  0  0  0  0  0  0  0
    2.7134    0.1816   -2.2475 H   0  0  0  0  0  0  0  0  0  0  0  0
    3.7035   -1.2663   -1.6973 H   0  0  0  0  0  0  0  0  0  0  0  0
    4.3767    0.3875   -1.6559 H   0  0  0  0  0  0  0  0  0  0  0  0
    3.2628    1.9903   -0.0736 H   0  0  0  0  0  0  0  0  0  0  0  0
    3.3446    1.2527    1.5861 H   0  0  0  0  0  0  0  0  0  0  0  0
    4.6865    0.9938    0.3368 H   0  0  0  0  0  0  0  0  0  0  0  0
    2.5047   -2.0358    0.7865 H   0  0  0  0  0  0  0  0  0  0  0  0
    4.1984   -1.8543    0.2621 H   0  0  0  0  0  0  0  0  0  0  0  0
    3.5941   -0.9873    1.7733 H   0  0  0  0  0  0  0  0  0  0  0  0
    1.4319    1.8552    0.9139 H   0  0  0  0  0  0  0  0  0  0  0  0
  1  2  1  0
  2  3  1  0
  2  4  1  0
  2  5  1  0
  5  6  2  0
  6  7  1  0
  7  8  2  0
  7  9  1  0
  9 10  1  0
 10 11  1  0
 10 12  1  0
 10 13  1  0
  9 14  2  0
 14 15  1  0
 15 16  2  0
 15  5  1  0
  1 17  1  0
  1 18  1  0
  1 19  1  0
  3 20  1  0
  3 21  1  0
  3 22  1  0
  4 23  1  0
  4 24  1  0
  4 25  1  0
  6 26  1  0
 11 27  1  0
 11 28  1  0
 11 29  1  0
 12 30  1  0
 12 31  1  0
 12 32  1  0
 13 33  1  0
 13 34  1  0
 13 35  1  0
 14 36  1  0
M  END
