
     RDKit          3D

 13 12  0  0  0  0  0  0  0  0999 V2000
   -2.1075    1.5013   -0.0777 C   0  0  0  0  0  0  0  0  0  0  0  0
   -1.4812    0.4241    0.3555 C   0  0  0  0  0  0  0  0  0  0  0  0
   -0.0555    0.2030    0.0945 C   0  0  0  0  0  0  0  0  0  0  0  0
    0.5823   -0.8710    0.5229 C   0  0  0  0  0  0  0  0  0  0  0  0
    2.0143   -1.0107    0.2147 C   0  0  0  0  0  0  0  0  0  0  0  0
   -1.5456    2.2355   -0.6398 H   0  0  0  0  0  0  0  0  0  0  0  0
   -3.1436    1.6226    0.1340 H   0  0  0  0  0  0  0  0  0  0  0  0
   -1.9886   -0.3447    0.9222 H   0  0  0  0  0  0  0  0  0  0  0  0
    0.5105    0.9548   -0.4785 H   0  0  0  0  0  0  0  0  0  0  0  0
    0.0079   -1.5951    1.0826 H   0  0  0  0  0  0  0  0  0  0  0  0
    2.4177   -1.9941    0.5339 H   0  0  0  0  0  0  0  0  0  0  0  0
    2.6499   -0.2451    0.6967 H   0  0  0  0  0  0  0  0  0  0  0  0
    2.1394   -0.8807   -0.8922 H   0  0  0  0  0  0  0  0  0  0  0  0
  1  2  2  0
  2  3  1  0
  3  4  2  0
  4  5  1  0
  1  6  1  0
  1  7  1  0
  2  8  1  0
  3  9  1  0
  4 10  1  0
  5 11  1  0
  5 12  1  0
  5 13  1  0
M  END
