
     RDKit          3D

 35 37  0  0  0  0  0  0  0  0999 V2000
    5.5457   -0.9877    1.2134 C   0  0  0  0  0  0  0  0  0  0  0  0
    4.7407    0.2591    1.3824 C   0  0  0  0  0  0  0  0  0  0  0  0
    3.5322    0.2791    0.5337 C   0  0  0  0  0  0  0  0  0  0  0  0
    2.3651   -0.2379    1.0390 C   0  0  0  0  0  0  0  0  0  0  0  0
    1.1705   -0.2600    0.3037 C   0  0  0  0  0  0  0  0  0  0  0  0
    1.1323    0.2473   -0.9736 C   0  0  0  0  0  0  0  0  0  0  0  0
    0.0129    0.3105   -1.8193 N   0  0  0  0  0  0  0  0  0  0  0  0
   -1.3063    0.1195   -1.3750 C   0  0  0  0  0  0  0  0  0  0  0  0
   -2.3024    0.1919   -2.3752 C   0  0  0  0  0  0  0  0  0  0  0  0
   -3.5952    0.0278   -2.0000 C   0  0  0  0  0  0  0  0  0  0  0  0
   -3.9102   -0.2005   -0.6873 C   0  0  0  0  0  0  0  0  0  0  0  0
   -5.2400   -0.3606   -0.3572 C   0  0  0  0  0  0  0  0  0  0  0  0
   -5.6279   -0.5940    0.9497 C   0  0  0  0  0  0  0  0  0  0  0  0
   -4.6258   -0.6584    1.9016 C   0  0  0  0  0  0  0  0  0  0  0  0
   -3.2952   -0.5027    1.6007 C   0  0  0  0  0  0  0  0  0  0  0  0
   -2.9253   -0.2707    0.2932 C   0  0  0  0  0  0  0  0  0  0  0  0
   -1.6745   -0.1069   -0.1030 N   0  0  0  0  0  0  0  0  0  0  0  0
    2.3403    0.7664   -1.4579 C   0  0  0  0  0  0  0  0  0  0  0  0
    3.5064    0.7851   -0.7335 C   0  0  0  0  0  0  0  0  0  0  0  0
    6.2345   -1.0908    2.0912 H   0  0  0  0  0  0  0  0  0  0  0  0
    6.2403   -0.8756    0.3308 H   0  0  0  0  0  0  0  0  0  0  0  0
    4.9476   -1.9100    1.1264 H   0  0  0  0  0  0  0  0  0  0  0  0
    4.4143    0.3238    2.4508 H   0  0  0  0  0  0  0  0  0  0  0  0
    5.3698    1.1264    1.1123 H   0  0  0  0  0  0  0  0  0  0  0  0
    2.2928   -0.6626    2.0407 H   0  0  0  0  0  0  0  0  0  0  0  0
    0.2845   -0.6855    0.7388 H   0  0  0  0  0  0  0  0  0  0  0  0
    0.1918    0.5091   -2.8454 H   0  0  0  0  0  0  0  0  0  0  0  0
   -2.0616    0.3709   -3.4085 H   0  0  0  0  0  0  0  0  0  0  0  0
   -4.3800    0.0822   -2.7708 H   0  0  0  0  0  0  0  0  0  0  0  0
   -6.0281   -0.3081   -1.1178 H   0  0  0  0  0  0  0  0  0  0  0  0
   -6.6750   -0.7165    1.1864 H   0  0  0  0  0  0  0  0  0  0  0  0
   -4.9216   -0.8412    2.9298 H   0  0  0  0  0  0  0  0  0  0  0  0
   -2.5374   -0.5601    2.3767 H   0  0  0  0  0  0  0  0  0  0  0  0
    2.3488    1.1750   -2.4586 H   0  0  0  0  0  0  0  0  0  0  0  0
    4.4360    1.1895   -1.1184 H   0  0  0  0  0  0  0  0  0  0  0  0
  1  2  1  0
  2  3  1  0
  3  4  2  0
  4  5  1  0
  5  6  2  0
  6  7  1  0
  7  8  1  0
  8  9  2  0
  9 10  1  0
 10 11  2  0
 11 12  1  0
 12 13  2  0
 13 14  1  0
 14 15  2  0
 15 16  1  0
 16 17  2  0
  6 18  1  0
 18 19  2  0
 19  3  1  0
 17  8  1  0
 16 11  1  0
  1 20  1  0
  1 21  1  0
  1 22  1  0
  2 23  1  0
  2 24  1  0
  4 25  1  0
  5 26  1  0
  7 27  1  0
  9 28  1  0
 10 29  1  0
 12 30  1  0
 13 31  1  0
 14 32  1  0
 15 33  1  0
 18 34  1  0
 19 35  1  0
M  END
