
     RDKit          3D

 90 94  0  0  0  0  0  0  0  0999 V2000
   -8.6971   -2.6854   -0.2859 C   0  0  0  0  0  0  0  0  0  0  0  0
   -7.3140   -2.0722   -0.3986 C   0  0  0  0  0  0  0  0  0  0  0  0
   -6.4878   -2.6404    0.7365 C   0  0  0  0  0  0  0  0  0  0  0  0
   -5.0945   -2.0932    0.7124 C   0  0  0  0  0  0  0  0  0  0  0  0
   -3.9859   -2.7933    0.5871 C   0  0  0  0  0  0  0  0  0  0  0  0
   -2.8551   -1.8663    0.6103 C   0  0  0  0  0  0  0  0  0  0  0  0
   -3.4209   -0.6600    0.7513 N   0  0  0  0  0  0  0  0  0  0  0  0
   -4.7182   -0.6948    0.8214 C   0  0  0  0  0  0  0  0  0  0  0  0
   -5.4443    0.5150    1.0021 C   0  0  0  0  0  0  0  0  0  0  0  0
   -4.9155    1.7434    0.6612 C   0  0  0  0  0  0  0  0  0  0  0  0
   -3.6215    2.0900    0.2454 C   0  0  0  0  0  0  0  0  0  0  0  0
   -2.4079    1.8148    0.7696 N   0  0  0  0  0  0  0  0  0  0  0  0
   -1.5031    2.2621   -0.0929 C   0  0  0  0  0  0  0  0  0  0  0  0
   -2.1082    2.8669   -1.2159 C   0  0  0  0  0  0  0  0  0  0  0  0
   -3.4486    2.7528   -0.9914 C   0  0  0  0  0  0  0  0  0  0  0  0
   -4.4689    3.3083   -1.9482 C   0  0  0  0  0  0  0  0  0  0  0  0
   -5.0270    4.6144   -1.4934 C   0  0  0  0  0  0  0  0  0  0  0  0
   -6.0496    5.1650   -2.4581 C   0  0  0  0  0  0  0  0  0  0  0  0
   -0.0831    2.1024   -0.1172 C   0  0  0  0  0  0  0  0  0  0  0  0
    0.5181    0.9471    0.1407 N   0  0  0  0  0  0  0  0  0  0  0  0
    1.8302    1.0029   -0.0495 C   0  0  0  0  0  0  0  0  0  0  0  0
    2.5841   -0.1817    0.1266 C   0  0  0  0  0  0  0  0  0  0  0  0
    3.9616    0.0282    0.4178 N   0  0  0  0  0  0  0  0  0  0  0  0
    4.9035   -0.9945    0.7162 C   0  0  0  0  0  0  0  0  0  0  0  0
    4.5505   -2.1812    0.7457 O   0  0  0  0  0  0  0  0  0  0  0  0
    6.3379   -0.5982    0.9948 C   0  0  0  0  0  0  0  0  0  0  0  0
    7.1034   -1.8442    1.2888 C   0  0  0  0  0  0  0  0  0  0  0  0
    8.5452   -1.6301    1.5898 C   0  0  0  0  0  0  0  0  0  0  0  0
    9.3305   -1.0095    0.5149 C   0  0  0  0  0  0  0  0  0  0  0  0
    8.8713   -0.6752   -0.6023 O   0  0  0  0  0  0  0  0  0  0  0  0
   10.6944   -0.7564    0.7141 O   0  0  0  0  0  0  0  0  0  0  0  0
    1.9881   -1.4492    0.0032 C   0  0  0  0  0  0  0  0  0  0  0  0
    0.6935   -1.8777    0.3124 C   0  0  0  0  0  0  0  0  0  0  0  0
   -0.5052   -1.4492   -0.1221 N   0  0  0  0  0  0  0  0  0  0  0  0
   -1.4431   -2.0744    0.5875 C   0  0  0  0  0  0  0  0  0  0  0  0
   -0.8732   -2.9600    1.5114 C   0  0  0  0  0  0  0  0  0  0  0  0
    0.4863   -2.8386    1.3370 C   0  0  0  0  0  0  0  0  0  0  0  0
    1.4867   -3.7024    2.0637 C   0  0  0  0  0  0  0  0  0  0  0  0
    1.7442   -4.9994    1.4075 C   0  0  0  0  0  0  0  0  0  0  0  0
    2.2621   -4.8825    0.0137 C   0  0  0  0  0  0  0  0  0  0  0  0
    2.1575    2.3442   -0.4766 C   0  0  0  0  0  0  0  0  0  0  0  0
    3.4648    2.9024   -0.8426 C   0  0  0  0  0  0  0  0  0  0  0  0
    3.2810    4.2801   -1.4805 C   0  0  0  0  0  0  0  0  0  0  0  0
    4.6826    4.7696   -1.8215 C   0  0  0  0  0  0  0  0  0  0  0  0
    0.9868    3.0073   -0.5151 C   0  0  0  0  0  0  0  0  0  0  0  0
   -8.5478   -3.7771   -0.1059 H   0  0  0  0  0  0  0  0  0  0  0  0
   -9.2893   -2.5275   -1.2222 H   0  0  0  0  0  0  0  0  0  0  0  0
   -9.2014   -2.2271    0.5900 H   0  0  0  0  0  0  0  0  0  0  0  0
   -6.9083   -2.3986   -1.3782 H   0  0  0  0  0  0  0  0  0  0  0  0
   -7.3332   -0.9675   -0.4024 H   0  0  0  0  0  0  0  0  0  0  0  0
   -6.9607   -2.4939    1.7107 H   0  0  0  0  0  0  0  0  0  0  0  0
   -6.4214   -3.7312    0.5665 H   0  0  0  0  0  0  0  0  0  0  0  0
   -3.9396   -3.8797    0.4863 H   0  0  0  0  0  0  0  0  0  0  0  0
   -6.4165    0.4000    1.4188 H   0  0  0  0  0  0  0  0  0  0  0  0
   -5.6718    2.5473    0.7048 H   0  0  0  0  0  0  0  0  0  0  0  0
   -2.2241    1.3604    1.7788 H   0  0  0  0  0  0  0  0  0  0  0  0
   -1.6453    3.3468   -2.0961 H   0  0  0  0  0  0  0  0  0  0  0  0
   -5.3068    2.5799   -2.0720 H   0  0  0  0  0  0  0  0  0  0  0  0
   -4.0265    3.4296   -2.9526 H   0  0  0  0  0  0  0  0  0  0  0  0
   -5.5225    4.5812   -0.5042 H   0  0  0  0  0  0  0  0  0  0  0  0
   -4.2110    5.3814   -1.4471 H   0  0  0  0  0  0  0  0  0  0  0  0
   -6.5940    5.9669   -1.9195 H   0  0  0  0  0  0  0  0  0  0  0  0
   -5.6131    5.6097   -3.3491 H   0  0  0  0  0  0  0  0  0  0  0  0
   -6.8237    4.4013   -2.7282 H   0  0  0  0  0  0  0  0  0  0  0  0
    4.3536    0.9924    0.4304 H   0  0  0  0  0  0  0  0  0  0  0  0
    6.4042    0.1603    1.7796 H   0  0  0  0  0  0  0  0  0  0  0  0
    6.7200   -0.1503    0.0672 H   0  0  0  0  0  0  0  0  0  0  0  0
    6.6325   -2.3687    2.1515 H   0  0  0  0  0  0  0  0  0  0  0  0
    7.0272   -2.5556    0.4336 H   0  0  0  0  0  0  0  0  0  0  0  0
    8.6782   -0.9612    2.4925 H   0  0  0  0  0  0  0  0  0  0  0  0
    9.0455   -2.5782    1.8844 H   0  0  0  0  0  0  0  0  0  0  0  0
   11.2812   -0.7191   -0.0920 H   0  0  0  0  0  0  0  0  0  0  0  0
    2.7462   -2.1741   -0.3869 H   0  0  0  0  0  0  0  0  0  0  0  0
   -0.6731   -0.7569   -0.9986 H   0  0  0  0  0  0  0  0  0  0  0  0
   -1.3619   -3.6403    2.2351 H   0  0  0  0  0  0  0  0  0  0  0  0
    1.1403   -3.8017    3.1204 H   0  0  0  0  0  0  0  0  0  0  0  0
    2.3988   -3.0720    2.1304 H   0  0  0  0  0  0  0  0  0  0  0  0
    2.5419   -5.5205    2.0285 H   0  0  0  0  0  0  0  0  0  0  0  0
    0.8614   -5.6831    1.4743 H   0  0  0  0  0  0  0  0  0  0  0  0
    2.3282   -5.9109   -0.4622 H   0  0  0  0  0  0  0  0  0  0  0  0
    1.5975   -4.2398   -0.6067 H   0  0  0  0  0  0  0  0  0  0  0  0
    3.2825   -4.4639   -0.0461 H   0  0  0  0  0  0  0  0  0  0  0  0
    4.1295    3.1052    0.0278 H   0  0  0  0  0  0  0  0  0  0  0  0
    3.9849    2.2512   -1.5442 H   0  0  0  0  0  0  0  0  0  0  0  0
    2.7686    4.9160   -0.7592 H   0  0  0  0  0  0  0  0  0  0  0  0
    2.7560    4.1117   -2.4275 H   0  0  0  0  0  0  0  0  0  0  0  0
    4.6858    5.8157   -2.1595 H   0  0  0  0  0  0  0  0  0  0  0  0
    5.0910    4.0804   -2.5958 H   0  0  0  0  0  0  0  0  0  0  0  0
    5.3186    4.6110   -0.9225 H   0  0  0  0  0  0  0  0  0  0  0  0
    0.9269    4.0437   -0.8045 H   0  0  0  0  0  0  0  0  0  0  0  0
  1  2  1  0
  2  3  1  0
  3  4  1  0
  4  5  2  0
  5  6  1  0
  6  7  2  0
  7  8  1  0
  8  9  2  0
  9 10  1  0
 10 11  2  0
 11 12  1  0
 12 13  1  0
 13 14  1  0
 14 15  2  0
 15 16  1  0
 16 17  1  0
 17 18  1  0
 13 19  2  0
 19 20  1  0
 20 21  2  0
 21 22  1  0
 22 23  1  0
 23 24  1  0
 24 25  2  0
 24 26  1  0
 26 27  1  0
 27 28  1  0
 28 29  1  0
 29 30  2  0
 29 31  1  0
 22 32  2  0
 32 33  1  0
 33 34  1  0
 34 35  1  0
 35 36  2  0
 36 37  1  0
 37 38  1  0
 38 39  1  0
 39 40  1  0
 21 41  1  0
 41 42  1  0
 42 43  1  0
 43 44  1  0
 41 45  2  0
  8  4  1  0
 15 11  1  0
 45 19  1  0
 35  6  1  0
 37 33  2  0
  1 46  1  0
  1 47  1  0
  1 48  1  0
  2 49  1  0
  2 50  1  0
  3 51  1  0
  3 52  1  0
  5 53  1  0
  9 54  1  0
 10 55  1  0
 12 56  1  0
 14 57  1  0
 16 58  1  0
 16 59  1  0
 17 60  1  0
 17 61  1  0
 18 62  1  0
 18 63  1  0
 18 64  1  0
 23 65  1  0
 26 66  1  0
 26 67  1  0
 27 68  1  0
 27 69  1  0
 28 70  1  0
 28 71  1  0
 31 72  1  0
 32 73  1  0
 34 74  1  0
 36 75  1  0
 38 76  1  0
 38 77  1  0
 39 78  1  0
 39 79  1  0
 40 80  1  0
 40 81  1  0
 40 82  1  0
 42 83  1  0
 42 84  1  0
 43 85  1  0
 43 86  1  0
 44 87  1  0
 44 88  1  0
 44 89  1  0
 45 90  1  0
M  END
