
     RDKit          3D

 71 80  0  0  0  0  0  0  0  0999 V2000
   -7.7993   -0.7982    4.0826 C   0  0  0  0  0  0  0  0  0  0  0  0
   -7.7400    0.4669    3.5741 C   0  0  0  0  0  0  0  0  0  0  0  0
   -7.1149    0.7006    2.3716 C   0  0  0  0  0  0  0  0  0  0  0  0
   -6.5268   -0.3003    1.6273 C   0  0  0  0  0  0  0  0  0  0  0  0
   -5.8961    0.0004    0.3914 N   0  0  0  0  0  0  0  0  0  0  0  0
   -6.5471    0.1772   -0.7709 C   0  0  0  0  0  0  0  0  0  0  0  0
   -7.8859    0.1289   -1.0971 C   0  0  0  0  0  0  0  0  0  0  0  0
   -8.3320    0.3492   -2.3905 C   0  0  0  0  0  0  0  0  0  0  0  0
   -7.3802    0.6216   -3.3523 C   0  0  0  0  0  0  0  0  0  0  0  0
   -6.0432    0.6673   -3.0146 C   0  0  0  0  0  0  0  0  0  0  0  0
   -5.5941    0.4500   -1.7346 C   0  0  0  0  0  0  0  0  0  0  0  0
   -4.3526    0.4356   -1.1355 C   0  0  0  0  0  0  0  0  0  0  0  0
   -3.0611    0.6366   -1.5956 C   0  0  0  0  0  0  0  0  0  0  0  0
   -1.9615    0.5654   -0.7721 C   0  0  0  0  0  0  0  0  0  0  0  0
   -0.5946    0.7848   -1.2948 C   0  0  0  0  0  0  0  0  0  0  0  0
   -0.4327    1.6629   -2.3433 C   0  0  0  0  0  0  0  0  0  0  0  0
    0.8221    1.8836   -2.8455 C   0  0  0  0  0  0  0  0  0  0  0  0
    1.8861    1.2376   -2.3070 C   0  0  0  0  0  0  0  0  0  0  0  0
    1.7502    0.3532   -1.2564 C   0  0  0  0  0  0  0  0  0  0  0  0
    2.8781   -0.3115   -0.7089 N   0  0  0  0  0  0  0  0  0  0  0  0
    2.9484   -1.6428   -0.5039 C   0  0  0  0  0  0  0  0  0  0  0  0
    2.0525   -2.6640   -0.7342 C   0  0  0  0  0  0  0  0  0  0  0  0
    2.4293   -3.9487   -0.4105 C   0  0  0  0  0  0  0  0  0  0  0  0
    3.6659   -4.2426    0.1328 C   0  0  0  0  0  0  0  0  0  0  0  0
    4.5535   -3.2017    0.3571 C   0  0  0  0  0  0  0  0  0  0  0  0
    4.2124   -1.8999    0.0457 C   0  0  0  0  0  0  0  0  0  0  0  0
    4.8362   -0.6768    0.1382 C   0  0  0  0  0  0  0  0  0  0  0  0
    6.1168   -0.3540    0.6181 C   0  0  0  0  0  0  0  0  0  0  0  0
    7.3888   -1.2857    1.2610 S   0  0  0  0  0  0  0  0  0  0  0  0
    8.5175   -0.0428    1.5577 C   0  0  0  0  0  0  0  0  0  0  0  0
    9.8211   -0.0012    2.0849 C   0  0  0  0  0  0  0  0  0  0  0  0
   10.5101    1.1813    2.2100 C   0  0  0  0  0  0  0  0  0  0  0  0
    9.8491    2.3086    1.7908 C   0  0  0  0  0  0  0  0  0  0  0  0
    8.5969    2.2908    1.2815 C   0  0  0  0  0  0  0  0  0  0  0  0
    7.8667    1.0824    1.1429 C   0  0  0  0  0  0  0  0  0  0  0  0
    6.6082    0.9196    0.6504 C   0  0  0  0  0  0  0  0  0  0  0  0
    5.7258    1.9117    0.1591 C   0  0  0  0  0  0  0  0  0  0  0  0
    4.4858    1.6056   -0.3066 C   0  0  0  0  0  0  0  0  0  0  0  0
    3.9995    0.3120   -0.3340 C   0  0  0  0  0  0  0  0  0  0  0  0
    0.4877    0.1303   -0.7499 C   0  0  0  0  0  0  0  0  0  0  0  0
   -2.1925    0.2806    0.5579 C   0  0  0  0  0  0  0  0  0  0  0  0
   -3.4862    0.0732    1.0491 C   0  0  0  0  0  0  0  0  0  0  0  0
   -4.5650    0.1516    0.1980 C   0  0  0  0  0  0  0  0  0  0  0  0
   -6.5907   -1.5810    2.1489 C   0  0  0  0  0  0  0  0  0  0  0  0
   -7.2220   -1.8280    3.3669 C   0  0  0  0  0  0  0  0  0  0  0  0
   -8.2892   -1.0301    5.0405 H   0  0  0  0  0  0  0  0  0  0  0  0
   -8.1740    1.3069    4.0909 H   0  0  0  0  0  0  0  0  0  0  0  0
   -7.0709    1.7218    1.9681 H   0  0  0  0  0  0  0  0  0  0  0  0
   -8.5984   -0.0881   -0.3107 H   0  0  0  0  0  0  0  0  0  0  0  0
   -9.3929    0.3069   -2.6281 H   0  0  0  0  0  0  0  0  0  0  0  0
   -7.7493    0.7906   -4.3564 H   0  0  0  0  0  0  0  0  0  0  0  0
   -5.3332    0.8832   -3.7956 H   0  0  0  0  0  0  0  0  0  0  0  0
   -2.9035    0.8582   -2.6397 H   0  0  0  0  0  0  0  0  0  0  0  0
   -1.2609    2.1911   -2.7916 H   0  0  0  0  0  0  0  0  0  0  0  0
    0.9689    2.5795   -3.6799 H   0  0  0  0  0  0  0  0  0  0  0  0
    2.8704    1.4547   -2.7520 H   0  0  0  0  0  0  0  0  0  0  0  0
    1.0707   -2.5126   -1.1547 H   0  0  0  0  0  0  0  0  0  0  0  0
    1.7542   -4.7845   -0.5752 H   0  0  0  0  0  0  0  0  0  0  0  0
    3.9212   -5.2687    0.3727 H   0  0  0  0  0  0  0  0  0  0  0  0
    5.5257   -3.4111    0.7816 H   0  0  0  0  0  0  0  0  0  0  0  0
   10.2397   -0.9484    2.3813 H   0  0  0  0  0  0  0  0  0  0  0  0
   11.4990    1.2378    2.6068 H   0  0  0  0  0  0  0  0  0  0  0  0
   10.3869    3.2441    1.8867 H   0  0  0  0  0  0  0  0  0  0  0  0
    8.1769    3.2462    0.9837 H   0  0  0  0  0  0  0  0  0  0  0  0
    5.9998    2.9602    0.1323 H   0  0  0  0  0  0  0  0  0  0  0  0
    3.7994    2.3811   -0.6891 H   0  0  0  0  0  0  0  0  0  0  0  0
    0.3093   -0.5607    0.0853 H   0  0  0  0  0  0  0  0  0  0  0  0
   -1.3711    0.2141    1.2407 H   0  0  0  0  0  0  0  0  0  0  0  0
   -3.6354   -0.1463    2.0857 H   0  0  0  0  0  0  0  0  0  0  0  0
   -6.1521   -2.3939    1.6148 H   0  0  0  0  0  0  0  0  0  0  0  0
   -7.2816   -2.8227    3.7898 H   0  0  0  0  0  0  0  0  0  0  0  0
  1  2  2  0
  2  3  1  0
  3  4  2  0
  4  5  1  0
  5  6  1  0
  6  7  2  0
  7  8  1  0
  8  9  2  0
  9 10  1  0
 10 11  2  0
 11 12  1  0
 12 13  2  0
 13 14  1  0
 14 15  1  0
 15 16  2  0
 16 17  1  0
 17 18  2  0
 18 19  1  0
 19 20  1  0
 20 21  1  0
 21 22  2  0
 22 23  1  0
 23 24  2  0
 24 25  1  0
 25 26  2  0
 26 27  1  0
 27 28  2  0
 28 29  1  0
 29 30  1  0
 30 31  2  0
 31 32  1  0
 32 33  2  0
 33 34  1  0
 34 35  2  0
 35 36  1  0
 36 37  2  0
 37 38  1  0
 38 39  2  0
 19 40  2  0
 14 41  2  0
 41 42  1  0
 42 43  2  0
  4 44  1  0
 44 45  2  0
 45  1  1  0
 43  5  1  0
 11  6  1  0
 43 12  1  0
 40 15  1  0
 39 20  1  0
 26 21  1  0
 39 27  1  0
 36 28  1  0
 35 30  1  0
  1 46  1  0
  2 47  1  0
  3 48  1  0
  7 49  1  0
  8 50  1  0
  9 51  1  0
 10 52  1  0
 13 53  1  0
 16 54  1  0
 17 55  1  0
 18 56  1  0
 22 57  1  0
 23 58  1  0
 24 59  1  0
 25 60  1  0
 31 61  1  0
 32 62  1  0
 33 63  1  0
 34 64  1  0
 37 65  1  0
 38 66  1  0
 40 67  1  0
 41 68  1  0
 42 69  1  0
 44 70  1  0
 45 71  1  0
M  END
