
     RDKit          3D

 26 28  0  0  0  0  0  0  0  0999 V2000
    4.5595    0.8664   -0.0282 N   0  0  0  0  0  0  0  0  0  0  0  0
    3.2745    0.2799   -0.0074 C   0  0  0  0  0  0  0  0  0  0  0  0
    3.1058   -1.1066    0.0438 C   0  0  0  0  0  0  0  0  0  0  0  0
    1.8448   -1.6638    0.0635 C   0  0  0  0  0  0  0  0  0  0  0  0
    0.6958   -0.9007    0.0345 C   0  0  0  0  0  0  0  0  0  0  0  0
   -0.5651   -1.4590    0.0543 C   0  0  0  0  0  0  0  0  0  0  0  0
   -1.7160   -0.6899    0.0251 C   0  0  0  0  0  0  0  0  0  0  0  0
   -2.9832   -1.2297    0.0442 C   0  0  0  0  0  0  0  0  0  0  0  0
   -4.1309   -0.4541    0.0148 C   0  0  0  0  0  0  0  0  0  0  0  0
   -3.9815    0.9186   -0.0359 C   0  0  0  0  0  0  0  0  0  0  0  0
   -2.7053    1.4717   -0.0555 C   0  0  0  0  0  0  0  0  0  0  0  0
   -1.5663    0.6888   -0.0258 C   0  0  0  0  0  0  0  0  0  0  0  0
   -0.2985    1.2359   -0.0452 C   0  0  0  0  0  0  0  0  0  0  0  0
    0.8512    0.4686   -0.0160 C   0  0  0  0  0  0  0  0  0  0  0  0
    2.1134    1.0264   -0.0358 C   0  0  0  0  0  0  0  0  0  0  0  0
    5.0713    1.0541    0.8459 H   0  0  0  0  0  0  0  0  0  0  0  0
    4.9820    1.1063   -0.9367 H   0  0  0  0  0  0  0  0  0  0  0  0
    4.0170   -1.6793    0.0655 H   0  0  0  0  0  0  0  0  0  0  0  0
    1.7312   -2.7350    0.1031 H   0  0  0  0  0  0  0  0  0  0  0  0
   -0.6724   -2.5412    0.0943 H   0  0  0  0  0  0  0  0  0  0  0  0
   -3.0973   -2.2971    0.0836 H   0  0  0  0  0  0  0  0  0  0  0  0
   -5.1265   -0.8893    0.0302 H   0  0  0  0  0  0  0  0  0  0  0  0
   -4.8560    1.5531   -0.0600 H   0  0  0  0  0  0  0  0  0  0  0  0
   -2.5775    2.5442   -0.0951 H   0  0  0  0  0  0  0  0  0  0  0  0
   -0.1812    2.3204   -0.0853 H   0  0  0  0  0  0  0  0  0  0  0  0
    2.2114    2.1113   -0.0759 H   0  0  0  0  0  0  0  0  0  0  0  0
  1  2  1  0
  2  3  2  0
  3  4  1  0
  4  5  2  0
  5  6  1  0
  6  7  2  0
  7  8  1  0
  8  9  2  0
  9 10  1  0
 10 11  2  0
 11 12  1  0
 12 13  2  0
 13 14  1  0
 14 15  2  0
 15  2  1  0
 14  5  1  0
 12  7  1  0
  1 16  1  0
  1 17  1  0
  3 18  1  0
  4 19  1  0
  6 20  1  0
  8 21  1  0
  9 22  1  0
 10 23  1  0
 11 24  1  0
 13 25  1  0
 15 26  1  0
M  END
