
     RDKit          3D

 58 60  0  0  0  0  0  0  0  0999 V2000
   -2.1844   -5.2535    0.5142 C   0  0  0  0  0  0  0  0  0  0  0  0
   -2.0037   -3.8557    0.6372 O   0  0  0  0  0  0  0  0  0  0  0  0
   -2.8201   -2.9472   -0.0536 C   0  0  0  0  0  0  0  0  0  0  0  0
   -3.7098   -3.4076   -0.7793 O   0  0  0  0  0  0  0  0  0  0  0  0
   -2.5695   -1.4750    0.1257 C   0  0  0  0  0  0  0  0  0  0  0  0
   -3.5556   -0.7978   -0.7008 N   0  0  0  0  0  0  0  0  0  0  0  0
   -4.5128    0.0686   -0.1286 C   0  0  0  0  0  0  0  0  0  0  0  0
   -4.4737    0.2264    1.1197 O   0  0  0  0  0  0  0  0  0  0  0  0
   -5.4759    0.7447   -0.8398 O   0  0  0  0  0  0  0  0  0  0  0  0
   -6.3867    1.5928   -0.1378 C   0  0  0  0  0  0  0  0  0  0  0  0
   -7.1728    0.7711    0.8802 C   0  0  0  0  0  0  0  0  0  0  0  0
   -7.3068    2.2399   -1.1456 C   0  0  0  0  0  0  0  0  0  0  0  0
   -5.6778    2.6693    0.6205 C   0  0  0  0  0  0  0  0  0  0  0  0
   -1.1829   -1.1676   -0.3337 C   0  0  0  0  0  0  0  0  0  0  0  0
   -0.8851   -1.2058   -1.6799 C   0  0  0  0  0  0  0  0  0  0  0  0
    0.3566   -0.9364   -2.1603 C   0  0  0  0  0  0  0  0  0  0  0  0
    1.3707   -0.6079   -1.2525 C   0  0  0  0  0  0  0  0  0  0  0  0
    2.6304   -0.3078   -1.4190 O   0  0  0  0  0  0  0  0  0  0  0  0
    3.2009   -0.0704   -0.2789 C   0  0  0  0  0  0  0  0  0  0  0  0
    4.6104    0.2954   -0.1040 C   0  0  0  0  0  0  0  0  0  0  0  0
    5.4465    0.4137   -1.1716 C   0  0  0  0  0  0  0  0  0  0  0  0
    6.7718    0.7505   -1.0914 C   0  0  0  0  0  0  0  0  0  0  0  0
    7.5752    0.8536   -2.2434 O   0  0  0  0  0  0  0  0  0  0  0  0
    8.9258    1.1956   -2.1757 C   0  0  0  0  0  0  0  0  0  0  0  0
    7.2858    0.9844    0.1669 C   0  0  0  0  0  0  0  0  0  0  0  0
    6.4607    0.8716    1.2672 C   0  0  0  0  0  0  0  0  0  0  0  0
    5.1227    0.5297    1.1633 C   0  0  0  0  0  0  0  0  0  0  0  0
    4.3348    0.4292    2.2995 O   0  0  0  0  0  0  0  0  0  0  0  0
    4.9389    0.6849    3.5502 C   0  0  0  0  0  0  0  0  0  0  0  0
    2.2736   -0.2221    0.6726 N   0  0  0  0  0  0  0  0  0  0  0  0
    1.1222   -0.5570    0.0984 C   0  0  0  0  0  0  0  0  0  0  0  0
   -0.1615   -0.8411    0.5278 C   0  0  0  0  0  0  0  0  0  0  0  0
   -2.8706   -5.5754    1.3131 H   0  0  0  0  0  0  0  0  0  0  0  0
   -1.2364   -5.8030    0.4815 H   0  0  0  0  0  0  0  0  0  0  0  0
   -2.7422   -5.4119   -0.4477 H   0  0  0  0  0  0  0  0  0  0  0  0
   -2.7100   -1.2009    1.1735 H   0  0  0  0  0  0  0  0  0  0  0  0
   -3.5497   -0.9566   -1.7144 H   0  0  0  0  0  0  0  0  0  0  0  0
   -6.8496    0.9812    1.9174 H   0  0  0  0  0  0  0  0  0  0  0  0
   -7.0056   -0.3111    0.7027 H   0  0  0  0  0  0  0  0  0  0  0  0
   -8.2542    0.9898    0.8356 H   0  0  0  0  0  0  0  0  0  0  0  0
   -8.3544    1.9948   -0.8275 H   0  0  0  0  0  0  0  0  0  0  0  0
   -7.2254    3.3326   -1.0762 H   0  0  0  0  0  0  0  0  0  0  0  0
   -7.1099    1.8829   -2.1780 H   0  0  0  0  0  0  0  0  0  0  0  0
   -6.4064    3.5219    0.7340 H   0  0  0  0  0  0  0  0  0  0  0  0
   -5.4358    2.3652    1.6722 H   0  0  0  0  0  0  0  0  0  0  0  0
   -4.8144    3.0819    0.0927 H   0  0  0  0  0  0  0  0  0  0  0  0
   -1.6630   -1.4615   -2.4206 H   0  0  0  0  0  0  0  0  0  0  0  0
    0.6004   -0.9648   -3.2284 H   0  0  0  0  0  0  0  0  0  0  0  0
    5.0494    0.2298   -2.1814 H   0  0  0  0  0  0  0  0  0  0  0  0
    9.0388    2.2791   -2.0579 H   0  0  0  0  0  0  0  0  0  0  0  0
    9.4772    0.7010   -1.3469 H   0  0  0  0  0  0  0  0  0  0  0  0
    9.4175    0.8247   -3.1167 H   0  0  0  0  0  0  0  0  0  0  0  0
    8.3339    1.2524    0.2500 H   0  0  0  0  0  0  0  0  0  0  0  0
    6.9334    1.0708    2.2359 H   0  0  0  0  0  0  0  0  0  0  0  0
    5.7320   -0.0633    3.7674 H   0  0  0  0  0  0  0  0  0  0  0  0
    5.4616    1.6847    3.5073 H   0  0  0  0  0  0  0  0  0  0  0  0
    4.1899    0.7635    4.3656 H   0  0  0  0  0  0  0  0  0  0  0  0
   -0.3540   -0.7997    1.5990 H   0  0  0  0  0  0  0  0  0  0  0  0
  1  2  1  0
  2  3  1  0
  3  4  2  0
  3  5  1  0
  5  6  1  0
  6  7  1  0
  7  8  2  0
  7  9  1  0
  9 10  1  0
 10 11  1  0
 10 12  1  0
 10 13  1  0
  5 14  1  0
 14 15  2  0
 15 16  1  0
 16 17  2  0
 17 18  1  0
 18 19  1  0
 19 20  1  0
 20 21  2  0
 21 22  1  0
 22 23  1  0
 23 24  1  0
 22 25  2  0
 25 26  1  0
 26 27  2  0
 27 28  1  0
 28 29  1  0
 19 30  2  0
 30 31  1  0
 31 32  2  0
 32 14  1  0
 31 17  1  0
 27 20  1  0
  1 33  1  0
  1 34  1  0
  1 35  1  0
  5 36  1  0
  6 37  1  0
 11 38  1  0
 11 39  1  0
 11 40  1  0
 12 41  1  0
 12 42  1  0
 12 43  1  0
 13 44  1  0
 13 45  1  0
 13 46  1  0
 15 47  1  0
 16 48  1  0
 21 49  1  0
 24 50  1  0
 24 51  1  0
 24 52  1  0
 25 53  1  0
 26 54  1  0
 29 55  1  0
 29 56  1  0
 29 57  1  0
 32 58  1  0
M  END
