
     RDKit          3D

 68 76  0  0  0  0  0  0  0  0999 V2000
    5.4069   -4.5539    1.0307 C   0  0  0  0  0  0  0  0  0  0  0  0
    4.9689   -3.1340    0.9941 C   0  0  0  0  0  0  0  0  0  0  0  0
    5.7542   -2.0743    1.2195 N   0  0  0  0  0  0  0  0  0  0  0  0
    4.9577   -1.0339    1.0841 N   0  0  0  0  0  0  0  0  0  0  0  0
    3.7243   -1.3591    0.7892 C   0  0  0  0  0  0  0  0  0  0  0  0
    2.5414   -0.5833    0.5543 C   0  0  0  0  0  0  0  0  0  0  0  0
    1.3241   -1.2442    0.2698 C   0  0  0  0  0  0  0  0  0  0  0  0
    0.1700   -0.5489    0.0336 C   0  0  0  0  0  0  0  0  0  0  0  0
   -1.0370   -1.2700   -0.2417 N   0  0  0  0  0  0  0  0  0  0  0  0
   -1.2933   -1.8203   -1.4494 C   0  0  0  0  0  0  0  0  0  0  0  0
   -0.5957   -1.8794   -2.6445 C   0  0  0  0  0  0  0  0  0  0  0  0
   -1.1294   -2.5371   -3.7278 C   0  0  0  0  0  0  0  0  0  0  0  0
   -2.3813   -3.1503   -3.6257 C   0  0  0  0  0  0  0  0  0  0  0  0
   -3.0617   -3.0823   -2.4302 C   0  0  0  0  0  0  0  0  0  0  0  0
   -2.5399   -2.4208   -1.3187 C   0  0  0  0  0  0  0  0  0  0  0  0
   -2.9859   -2.2077   -0.0310 C   0  0  0  0  0  0  0  0  0  0  0  0
   -4.1457   -2.5891    0.6265 C   0  0  0  0  0  0  0  0  0  0  0  0
   -4.3555   -2.2454    1.9608 C   0  0  0  0  0  0  0  0  0  0  0  0
   -3.3813   -1.5141    2.6202 C   0  0  0  0  0  0  0  0  0  0  0  0
   -2.2348   -1.1355    1.9759 C   0  0  0  0  0  0  0  0  0  0  0  0
   -2.0276   -1.4817    0.6353 C   0  0  0  0  0  0  0  0  0  0  0  0
    0.1316    0.8346    0.0596 C   0  0  0  0  0  0  0  0  0  0  0  0
   -1.0534    1.5759   -0.1867 N   0  0  0  0  0  0  0  0  0  0  0  0
   -1.8026    2.1404    0.7492 C   0  0  0  0  0  0  0  0  0  0  0  0
   -1.7517    2.2369    2.1419 C   0  0  0  0  0  0  0  0  0  0  0  0
   -2.6822    2.9107    2.8822 C   0  0  0  0  0  0  0  0  0  0  0  0
   -3.7357    3.5376    2.2586 C   0  0  0  0  0  0  0  0  0  0  0  0
   -3.8278    3.4697    0.8847 C   0  0  0  0  0  0  0  0  0  0  0  0
   -2.8713    2.7803    0.1556 C   0  0  0  0  0  0  0  0  0  0  0  0
   -2.7635    2.5952   -1.1962 C   0  0  0  0  0  0  0  0  0  0  0  0
   -3.5177    2.9979   -2.2799 C   0  0  0  0  0  0  0  0  0  0  0  0
   -3.1686    2.6709   -3.5752 C   0  0  0  0  0  0  0  0  0  0  0  0
   -2.0334    1.9218   -3.7749 C   0  0  0  0  0  0  0  0  0  0  0  0
   -1.2879    1.5249   -2.6893 C   0  0  0  0  0  0  0  0  0  0  0  0
   -1.6065    1.8336   -1.3667 C   0  0  0  0  0  0  0  0  0  0  0  0
    1.3172    1.4746    0.3367 C   0  0  0  0  0  0  0  0  0  0  0  0
    2.5108    0.7714    0.5819 C   0  0  0  0  0  0  0  0  0  0  0  0
    3.6781    1.5839    0.8588 C   0  0  0  0  0  0  0  0  0  0  0  0
    3.6990    2.9473    0.9023 N   0  0  0  0  0  0  0  0  0  0  0  0
    4.9140    3.3692    1.1784 N   0  0  0  0  0  0  0  0  0  0  0  0
    5.6811    2.2816    1.3142 C   0  0  0  0  0  0  0  0  0  0  0  0
    7.1479    2.2931    1.6332 C   0  0  0  0  0  0  0  0  0  0  0  0
    4.8920    1.2675    1.1139 O   0  0  0  0  0  0  0  0  0  0  0  0
    3.7765   -2.7101    0.7417 O   0  0  0  0  0  0  0  0  0  0  0  0
    5.8771   -4.8374    0.0858 H   0  0  0  0  0  0  0  0  0  0  0  0
    6.1770   -4.6219    1.8481 H   0  0  0  0  0  0  0  0  0  0  0  0
    4.5433   -5.2126    1.2077 H   0  0  0  0  0  0  0  0  0  0  0  0
    1.3597   -2.3239    0.2507 H   0  0  0  0  0  0  0  0  0  0  0  0
    0.3683   -1.4230   -2.7689 H   0  0  0  0  0  0  0  0  0  0  0  0
   -0.6347   -2.6173   -4.6856 H   0  0  0  0  0  0  0  0  0  0  0  0
   -2.7885   -3.6634   -4.4842 H   0  0  0  0  0  0  0  0  0  0  0  0
   -4.0296   -3.5353   -2.2926 H   0  0  0  0  0  0  0  0  0  0  0  0
   -4.8692   -3.1643    0.0481 H   0  0  0  0  0  0  0  0  0  0  0  0
   -5.2606   -2.5458    2.4658 H   0  0  0  0  0  0  0  0  0  0  0  0
   -3.5493   -1.2504    3.6554 H   0  0  0  0  0  0  0  0  0  0  0  0
   -1.4572   -0.5737    2.4746 H   0  0  0  0  0  0  0  0  0  0  0  0
   -0.9381    1.7559    2.6601 H   0  0  0  0  0  0  0  0  0  0  0  0
   -2.5580    2.9318    3.9731 H   0  0  0  0  0  0  0  0  0  0  0  0
   -4.4513    4.0612    2.8835 H   0  0  0  0  0  0  0  0  0  0  0  0
   -4.6752    3.9755    0.3939 H   0  0  0  0  0  0  0  0  0  0  0  0
   -4.4197    3.5931   -2.1191 H   0  0  0  0  0  0  0  0  0  0  0  0
   -3.7764    2.9983   -4.4073 H   0  0  0  0  0  0  0  0  0  0  0  0
   -1.7609    1.6667   -4.7943 H   0  0  0  0  0  0  0  0  0  0  0  0
   -0.3996    0.9475   -2.8967 H   0  0  0  0  0  0  0  0  0  0  0  0
    1.3097    2.5569    0.3622 H   0  0  0  0  0  0  0  0  0  0  0  0
    7.3438    2.1944    2.7140 H   0  0  0  0  0  0  0  0  0  0  0  0
    7.6456    3.2080    1.2812 H   0  0  0  0  0  0  0  0  0  0  0  0
    7.6191    1.4360    1.0959 H   0  0  0  0  0  0  0  0  0  0  0  0
  1  2  1  0
  2  3  2  0
  3  4  1  0
  4  5  2  0
  5  6  1  0
  6  7  2  0
  7  8  1  0
  8  9  1  0
  9 10  1  0
 10 11  2  0
 11 12  1  0
 12 13  2  0
 13 14  1  0
 14 15  2  0
 15 16  1  0
 16 17  2  0
 17 18  1  0
 18 19  2  0
 19 20  1  0
 20 21  2  0
  8 22  2  0
 22 23  1  0
 23 24  1  0
 24 25  2  0
 25 26  1  0
 26 27  2  0
 27 28  1  0
 28 29  2  0
 29 30  1  0
 30 31  2  0
 31 32  1  0
 32 33  2  0
 33 34  1  0
 34 35  2  0
 22 36  1  0
 36 37  2  0
 37 38  1  0
 38 39  2  0
 39 40  1  0
 40 41  2  0
 41 42  1  0
 41 43  1  0
  5 44  1  0
 44  2  1  0
 37  6  1  0
 43 38  1  0
 21  9  1  0
 35 23  1  0
 15 10  1  0
 21 16  1  0
 29 24  1  0
 35 30  1  0
  1 45  1  0
  1 46  1  0
  1 47  1  0
  7 48  1  0
 11 49  1  0
 12 50  1  0
 13 51  1  0
 14 52  1  0
 17 53  1  0
 18 54  1  0
 19 55  1  0
 20 56  1  0
 25 57  1  0
 26 58  1  0
 27 59  1  0
 28 60  1  0
 31 61  1  0
 32 62  1  0
 33 63  1  0
 34 64  1  0
 36 65  1  0
 42 66  1  0
 42 67  1  0
 42 68  1  0
M  END
