
     RDKit          3D

 56 62  0  0  0  0  0  0  0  0999 V2000
    2.5510   -2.0989   -1.0443 C   0  0  0  0  0  0  0  0  0  0  0  0
    3.5124   -1.2073   -1.0629 C   0  0  0  0  0  0  0  0  0  0  0  0
    4.9419   -1.4960   -1.3050 C   0  0  0  0  0  0  0  0  0  0  0  0
    5.5714   -2.6989   -1.5438 C   0  0  0  0  0  0  0  0  0  0  0  0
    6.9342   -2.6728   -1.7374 C   0  0  0  0  0  0  0  0  0  0  0  0
    7.6727   -1.5096   -1.7009 C   0  0  0  0  0  0  0  0  0  0  0  0
    7.0037   -0.3165   -1.4576 C   0  0  0  0  0  0  0  0  0  0  0  0
    5.6393   -0.3318   -1.2625 C   0  0  0  0  0  0  0  0  0  0  0  0
    4.6796    0.7574   -0.9903 C   0  0  0  0  0  0  0  0  0  0  0  0
    4.8960    2.1161   -0.8590 C   0  0  0  0  0  0  0  0  0  0  0  0
    3.8236    2.9296   -0.6091 C   0  0  0  0  0  0  0  0  0  0  0  0
    2.5468    2.4524   -0.4844 C   0  0  0  0  0  0  0  0  0  0  0  0
    2.3476    1.0913   -0.6185 C   0  0  0  0  0  0  0  0  0  0  0  0
    3.3997    0.2357   -0.8700 C   0  0  0  0  0  0  0  0  0  0  0  0
    1.1492   -1.8057   -0.8022 C   0  0  0  0  0  0  0  0  0  0  0  0
    0.2523   -1.5877   -1.8250 C   0  0  0  0  0  0  0  0  0  0  0  0
   -1.0706   -1.3476   -1.5594 C   0  0  0  0  0  0  0  0  0  0  0  0
   -1.5982   -1.3066   -0.2598 C   0  0  0  0  0  0  0  0  0  0  0  0
   -3.0170   -1.1236   -0.0742 C   0  0  0  0  0  0  0  0  0  0  0  0
   -3.6738   -0.2114    0.5943 C   0  0  0  0  0  0  0  0  0  0  0  0
   -5.1608   -0.1947    0.6786 C   0  0  0  0  0  0  0  0  0  0  0  0
   -6.1102   -1.0608    0.1556 C   0  0  0  0  0  0  0  0  0  0  0  0
   -7.4425   -0.7854    0.4036 C   0  0  0  0  0  0  0  0  0  0  0  0
   -7.8458    0.3029    1.1404 C   0  0  0  0  0  0  0  0  0  0  0  0
   -6.8837    1.1490    1.6495 C   0  0  0  0  0  0  0  0  0  0  0  0
   -5.5339    0.8965    1.4157 C   0  0  0  0  0  0  0  0  0  0  0  0
   -4.3764    1.6451    1.8500 C   0  0  0  0  0  0  0  0  0  0  0  0
   -4.1995    2.8058    2.5883 C   0  0  0  0  0  0  0  0  0  0  0  0
   -2.9172    3.2911    2.8244 C   0  0  0  0  0  0  0  0  0  0  0  0
   -1.8090    2.6386    2.3362 C   0  0  0  0  0  0  0  0  0  0  0  0
   -2.0229    1.4881    1.6066 C   0  0  0  0  0  0  0  0  0  0  0  0
   -3.2663    0.9576    1.3407 C   0  0  0  0  0  0  0  0  0  0  0  0
   -0.6866   -1.5270    0.7502 C   0  0  0  0  0  0  0  0  0  0  0  0
    0.6408   -1.7687    0.5003 C   0  0  0  0  0  0  0  0  0  0  0  0
    2.8408   -3.1557   -1.2290 H   0  0  0  0  0  0  0  0  0  0  0  0
    4.9965   -3.6064   -1.5725 H   0  0  0  0  0  0  0  0  0  0  0  0
    7.4913   -3.5997   -1.9318 H   0  0  0  0  0  0  0  0  0  0  0  0
    8.7445   -1.4897   -1.8532 H   0  0  0  0  0  0  0  0  0  0  0  0
    7.5466    0.6242   -1.4203 H   0  0  0  0  0  0  0  0  0  0  0  0
    5.8974    2.5068   -0.9550 H   0  0  0  0  0  0  0  0  0  0  0  0
    3.9488    4.0122   -0.4976 H   0  0  0  0  0  0  0  0  0  0  0  0
    1.7103    3.1202   -0.2856 H   0  0  0  0  0  0  0  0  0  0  0  0
    1.3650    0.7030   -0.5325 H   0  0  0  0  0  0  0  0  0  0  0  0
    0.6133   -1.6098   -2.8407 H   0  0  0  0  0  0  0  0  0  0  0  0
   -1.8040   -1.1709   -2.3608 H   0  0  0  0  0  0  0  0  0  0  0  0
   -3.6027   -1.9203   -0.6136 H   0  0  0  0  0  0  0  0  0  0  0  0
   -5.7825   -1.9067   -0.4178 H   0  0  0  0  0  0  0  0  0  0  0  0
   -8.1978   -1.4375    0.0120 H   0  0  0  0  0  0  0  0  0  0  0  0
   -8.9043    0.4937    1.3191 H   0  0  0  0  0  0  0  0  0  0  0  0
   -7.1841    2.0206    2.2385 H   0  0  0  0  0  0  0  0  0  0  0  0
   -5.0802    3.3051    2.9634 H   0  0  0  0  0  0  0  0  0  0  0  0
   -2.8246    4.1946    3.4022 H   0  0  0  0  0  0  0  0  0  0  0  0
   -0.8048    2.9841    2.4984 H   0  0  0  0  0  0  0  0  0  0  0  0
   -1.1554    1.0029    1.2114 H   0  0  0  0  0  0  0  0  0  0  0  0
   -1.0914   -1.4964    1.7623 H   0  0  0  0  0  0  0  0  0  0  0  0
    1.3291   -1.9383    1.3349 H   0  0  0  0  0  0  0  0  0  0  0  0
  1  2  2  3
  2  3  1  0
  3  4  2  0
  4  5  1  0
  5  6  2  0
  6  7  1  0
  7  8  2  0
  8  9  1  0
  9 10  2  0
 10 11  1  0
 11 12  2  0
 12 13  1  0
 13 14  2  0
  1 15  1  0
 15 16  2  0
 16 17  1  0
 17 18  2  0
 18 19  1  0
 19 20  2  3
 20 21  1  0
 21 22  2  0
 22 23  1  0
 23 24  2  0
 24 25  1  0
 25 26  2  0
 26 27  1  0
 27 28  2  0
 28 29  1  0
 29 30  2  0
 30 31  1  0
 31 32  2  0
 18 33  1  0
 33 34  2  0
 14  2  1  0
 34 15  1  0
  8  3  1  0
 14  9  1  0
 32 20  1  0
 26 21  1  0
 32 27  1  0
  1 35  1  0
  4 36  1  0
  5 37  1  0
  6 38  1  0
  7 39  1  0
 10 40  1  0
 11 41  1  0
 12 42  1  0
 13 43  1  0
 16 44  1  0
 17 45  1  0
 19 46  1  0
 22 47  1  0
 23 48  1  0
 24 49  1  0
 25 50  1  0
 28 51  1  0
 29 52  1  0
 30 53  1  0
 31 54  1  0
 33 55  1  0
 34 56  1  0
M  END
