
     RDKit          3D

113116  0  0  0  0  0  0  0  0999 V2000
  -12.1471   -0.2444    1.1253 C   0  0  0  0  0  0  0  0  0  0  0  0
  -11.9475   -1.5016    1.8735 C   0  0  0  0  0  0  0  0  0  0  0  0
  -10.9996   -2.4586    1.2563 C   0  0  0  0  0  0  0  0  0  0  0  0
  -11.2248   -3.0464   -0.0531 C   0  0  0  0  0  0  0  0  0  0  0  0
  -11.0686   -2.1860   -1.2596 C   0  0  0  0  0  0  0  0  0  0  0  0
   -9.6771   -1.6994   -1.4586 C   0  0  0  0  0  0  0  0  0  0  0  0
   -9.0837   -0.8847   -0.4981 O   0  0  0  0  0  0  0  0  0  0  0  0
   -7.7002   -0.6256   -0.6712 C   0  0  0  0  0  0  0  0  0  0  0  0
   -7.0397   -1.1438   -1.7701 C   0  0  0  0  0  0  0  0  0  0  0  0
   -5.6723   -0.9419   -1.9548 C   0  0  0  0  0  0  0  0  0  0  0  0
   -4.9378   -0.2073   -1.0438 C   0  0  0  0  0  0  0  0  0  0  0  0
   -3.4892   -0.3438   -1.0097 C   0  0  0  0  0  0  0  0  0  0  0  0
   -2.2613   -0.4660   -0.9987 C   0  0  0  0  0  0  0  0  0  0  0  0
   -0.8397   -0.6083   -0.9913 C   0  0  0  0  0  0  0  0  0  0  0  0
   -0.3034   -1.3189    0.0985 C   0  0  0  0  0  0  0  0  0  0  0  0
    1.0415   -1.2405    0.3612 C   0  0  0  0  0  0  0  0  0  0  0  0
    1.8193   -0.4629   -0.4705 C   0  0  0  0  0  0  0  0  0  0  0  0
    3.1694   -0.2230   -0.0381 C   0  0  0  0  0  0  0  0  0  0  0  0
    4.2896   -0.0044    0.3302 C   0  0  0  0  0  0  0  0  0  0  0  0
    5.6532    0.2714    0.7960 C   0  0  0  0  0  0  0  0  0  0  0  0
    6.2098   -0.4237    1.7903 C   0  0  0  0  0  0  0  0  0  0  0  0
    7.5496   -0.1470    2.1298 C   0  0  0  0  0  0  0  0  0  0  0  0
    8.2381    0.7944    1.4584 C   0  0  0  0  0  0  0  0  0  0  0  0
    9.5990    1.1361    1.6640 O   0  0  0  0  0  0  0  0  0  0  0  0
   10.2351    0.1857    2.5883 C   0  0  0  0  0  0  0  0  0  0  0  0
   10.5660   -1.1220    2.0609 C   0  0  0  0  0  0  0  0  0  0  0  0
    9.7966   -2.1663    1.4060 C   0  0  0  0  0  0  0  0  0  0  0  0
    9.1737   -2.0129    0.0703 C   0  0  0  0  0  0  0  0  0  0  0  0
    8.4429   -3.3364   -0.2223 C   0  0  0  0  0  0  0  0  0  0  0  0
    7.7509   -3.2406   -1.5471 C   0  0  0  0  0  0  0  0  0  0  0  0
    7.6312    1.5223    0.4201 C   0  0  0  0  0  0  0  0  0  0  0  0
    8.3749    2.4834   -0.2304 O   0  0  0  0  0  0  0  0  0  0  0  0
    7.9884    3.2441   -1.3454 C   0  0  0  0  0  0  0  0  0  0  0  0
    7.8669    2.3667   -2.5762 C   0  0  0  0  0  0  0  0  0  0  0  0
    9.2356    1.8408   -3.0209 C   0  0  0  0  0  0  0  0  0  0  0  0
    9.9874    1.1388   -1.9434 C   0  0  0  0  0  0  0  0  0  0  0  0
   11.2734    0.6392   -2.5794 C   0  0  0  0  0  0  0  0  0  0  0  0
   12.1984   -0.0710   -1.6639 C   0  0  0  0  0  0  0  0  0  0  0  0
    6.3570    1.2558    0.1017 C   0  0  0  0  0  0  0  0  0  0  0  0
    1.2674    0.2300   -1.5690 C   0  0  0  0  0  0  0  0  0  0  0  0
    1.9913    0.9853   -2.4069 N   0  0  0  0  0  0  0  0  0  0  0  0
    0.8786    1.5698   -3.5104 S   0  0  0  0  0  0  0  0  0  0  0  0
   -0.4982    0.8461   -2.8912 N   0  0  0  0  0  0  0  0  0  0  0  0
   -0.0568    0.1605   -1.8324 C   0  0  0  0  0  0  0  0  0  0  0  0
   -5.5896    0.3218    0.0390 C   0  0  0  0  0  0  0  0  0  0  0  0
   -6.9733    0.1058    0.2206 C   0  0  0  0  0  0  0  0  0  0  0  0
   -7.5324    0.6630    1.3313 O   0  0  0  0  0  0  0  0  0  0  0  0
   -6.7503    1.5245    2.1632 C   0  0  0  0  0  0  0  0  0  0  0  0
   -7.4828    2.0578    3.3060 C   0  0  0  0  0  0  0  0  0  0  0  0
   -8.5496    3.0570    3.1726 C   0  0  0  0  0  0  0  0  0  0  0  0
   -9.5919    2.8110    2.1675 C   0  0  0  0  0  0  0  0  0  0  0  0
   -9.2376    3.0619    0.7268 C   0  0  0  0  0  0  0  0  0  0  0  0
  -10.3955    2.7389   -0.2016 C   0  0  0  0  0  0  0  0  0  0  0  0
  -13.2211    0.0657    1.0754 H   0  0  0  0  0  0  0  0  0  0  0  0
  -11.6310   -0.2872    0.1870 H   0  0  0  0  0  0  0  0  0  0  0  0
  -11.6851    0.5630    1.7858 H   0  0  0  0  0  0  0  0  0  0  0  0
  -11.4751   -1.2406    2.8990 H   0  0  0  0  0  0  0  0  0  0  0  0
  -12.9211   -2.0290    2.1046 H   0  0  0  0  0  0  0  0  0  0  0  0
  -10.7411   -3.3137    2.0104 H   0  0  0  0  0  0  0  0  0  0  0  0
   -9.9813   -1.9040    1.2868 H   0  0  0  0  0  0  0  0  0  0  0  0
  -12.2313   -3.6051   -0.1080 H   0  0  0  0  0  0  0  0  0  0  0  0
  -10.4827   -3.9156   -0.2016 H   0  0  0  0  0  0  0  0  0  0  0  0
  -11.1598   -2.9733   -2.1458 H   0  0  0  0  0  0  0  0  0  0  0  0
  -11.8076   -1.4367   -1.5070 H   0  0  0  0  0  0  0  0  0  0  0  0
   -9.5934   -1.2530   -2.5053 H   0  0  0  0  0  0  0  0  0  0  0  0
   -9.0425   -2.6539   -1.5558 H   0  0  0  0  0  0  0  0  0  0  0  0
   -7.6086   -1.7097   -2.5039 H   0  0  0  0  0  0  0  0  0  0  0  0
   -5.1374   -1.3267   -2.8041 H   0  0  0  0  0  0  0  0  0  0  0  0
   -0.9570   -1.9246    0.7068 H   0  0  0  0  0  0  0  0  0  0  0  0
    1.4876   -1.7745    1.1972 H   0  0  0  0  0  0  0  0  0  0  0  0
    5.6466   -1.1625    2.3141 H   0  0  0  0  0  0  0  0  0  0  0  0
    7.9579   -0.6865    2.9665 H   0  0  0  0  0  0  0  0  0  0  0  0
   11.2170    0.7429    2.7981 H   0  0  0  0  0  0  0  0  0  0  0  0
    9.6119    0.2200    3.5045 H   0  0  0  0  0  0  0  0  0  0  0  0
   11.2139   -1.6651    2.9117 H   0  0  0  0  0  0  0  0  0  0  0  0
   11.4864   -0.9600    1.3305 H   0  0  0  0  0  0  0  0  0  0  0  0
   10.5004   -3.1002    1.2639 H   0  0  0  0  0  0  0  0  0  0  0  0
    9.0016   -2.5470    2.1170 H   0  0  0  0  0  0  0  0  0  0  0  0
    8.4779   -1.2385   -0.1608 H   0  0  0  0  0  0  0  0  0  0  0  0
    9.9786   -1.9292   -0.7403 H   0  0  0  0  0  0  0  0  0  0  0  0
    7.6916   -3.5026    0.5638 H   0  0  0  0  0  0  0  0  0  0  0  0
    9.2251   -4.1127   -0.2847 H   0  0  0  0  0  0  0  0  0  0  0  0
    8.4191   -2.7237   -2.2845 H   0  0  0  0  0  0  0  0  0  0  0  0
    7.5183   -4.2696   -1.8738 H   0  0  0  0  0  0  0  0  0  0  0  0
    6.7860   -2.6776   -1.4801 H   0  0  0  0  0  0  0  0  0  0  0  0
    8.7137    4.0284   -1.5469 H   0  0  0  0  0  0  0  0  0  0  0  0
    7.0132    3.7192   -1.1836 H   0  0  0  0  0  0  0  0  0  0  0  0
    7.4791    2.9329   -3.4514 H   0  0  0  0  0  0  0  0  0  0  0  0
    7.2549    1.4862   -2.4606 H   0  0  0  0  0  0  0  0  0  0  0  0
    8.9847    1.0742   -3.8168 H   0  0  0  0  0  0  0  0  0  0  0  0
    9.8175    2.6630   -3.4738 H   0  0  0  0  0  0  0  0  0  0  0  0
    9.4722    0.3333   -1.4712 H   0  0  0  0  0  0  0  0  0  0  0  0
   10.3146    1.9455   -1.1894 H   0  0  0  0  0  0  0  0  0  0  0  0
   11.7651    1.5566   -2.9820 H   0  0  0  0  0  0  0  0  0  0  0  0
   10.9739   -0.0425   -3.4185 H   0  0  0  0  0  0  0  0  0  0  0  0
   13.2247    0.0120   -2.1357 H   0  0  0  0  0  0  0  0  0  0  0  0
   12.2698    0.3200   -0.6405 H   0  0  0  0  0  0  0  0  0  0  0  0
   12.0087   -1.1943   -1.6572 H   0  0  0  0  0  0  0  0  0  0  0  0
    5.8138    1.8215   -0.6761 H   0  0  0  0  0  0  0  0  0  0  0  0
   -5.0372    0.9113    0.7578 H   0  0  0  0  0  0  0  0  0  0  0  0
   -5.8897    0.8854    2.5324 H   0  0  0  0  0  0  0  0  0  0  0  0
   -6.3017    2.3272    1.5603 H   0  0  0  0  0  0  0  0  0  0  0  0
   -6.7377    2.3980    4.1196 H   0  0  0  0  0  0  0  0  0  0  0  0
   -7.9740    1.1293    3.8145 H   0  0  0  0  0  0  0  0  0  0  0  0
   -8.0741    4.0915    3.0231 H   0  0  0  0  0  0  0  0  0  0  0  0
   -9.0556    3.1781    4.2047 H   0  0  0  0  0  0  0  0  0  0  0  0
   -9.8684    1.6973    2.1905 H   0  0  0  0  0  0  0  0  0  0  0  0
  -10.5371    3.2950    2.4725 H   0  0  0  0  0  0  0  0  0  0  0  0
   -8.3511    2.6460    0.3210 H   0  0  0  0  0  0  0  0  0  0  0  0
   -9.1549    4.2065    0.6543 H   0  0  0  0  0  0  0  0  0  0  0  0
  -10.5662    3.5694   -0.9405 H   0  0  0  0  0  0  0  0  0  0  0  0
  -10.2707    1.7979   -0.7386 H   0  0  0  0  0  0  0  0  0  0  0  0
  -11.3661    2.6576    0.3646 H   0  0  0  0  0  0  0  0  0  0  0  0
  1  2  1  0
  2  3  1  0
  3  4  1  0
  4  5  1  0
  5  6  1  0
  6  7  1  0
  7  8  1  0
  8  9  2  0
  9 10  1  0
 10 11  2  0
 11 12  1  0
 12 13  3  0
 13 14  1  0
 14 15  2  0
 15 16  1  0
 16 17  2  0
 17 18  1  0
 18 19  3  0
 19 20  1  0
 20 21  2  0
 21 22  1  0
 22 23  2  0
 23 24  1  0
 24 25  1  0
 25 26  1  0
 26 27  1  0
 27 28  1  0
 28 29  1  0
 29 30  1  0
 23 31  1  0
 31 32  1  0
 32 33  1  0
 33 34  1  0
 34 35  1  0
 35 36  1  0
 36 37  1  0
 37 38  1  0
 31 39  2  0
 17 40  1  0
 40 41  2  0
 41 42  1  0
 42 43  1  0
 43 44  2  0
 11 45  1  0
 45 46  2  0
 46 47  1  0
 47 48  1  0
 48 49  1  0
 49 50  1  0
 50 51  1  0
 51 52  1  0
 52 53  1  0
 46  8  1  0
 44 14  1  0
 39 20  1  0
 44 40  1  0
  1 54  1  0
  1 55  1  0
  1 56  1  0
  2 57  1  0
  2 58  1  0
  3 59  1  0
  3 60  1  0
  4 61  1  0
  4 62  1  0
  5 63  1  0
  5 64  1  0
  6 65  1  0
  6 66  1  0
  9 67  1  0
 10 68  1  0
 15 69  1  0
 16 70  1  0
 21 71  1  0
 22 72  1  0
 25 73  1  0
 25 74  1  0
 26 75  1  0
 26 76  1  0
 27 77  1  0
 27 78  1  0
 28 79  1  0
 28 80  1  0
 29 81  1  0
 29 82  1  0
 30 83  1  0
 30 84  1  0
 30 85  1  0
 33 86  1  0
 33 87  1  0
 34 88  1  0
 34 89  1  0
 35 90  1  0
 35 91  1  0
 36 92  1  0
 36 93  1  0
 37 94  1  0
 37 95  1  0
 38 96  1  0
 38 97  1  0
 38 98  1  0
 39 99  1  0
 45100  1  0
 48101  1  0
 48102  1  0
 49103  1  0
 49104  1  0
 50105  1  0
 50106  1  0
 51107  1  0
 51108  1  0
 52109  1  0
 52110  1  0
 53111  1  0
 53112  1  0
 53113  1  0
M  END
