
     RDKit          3D

 62 67  0  0  0  0  0  0  0  0999 V2000
    4.4880    0.9190   -0.3803 C   0  0  0  0  0  0  0  0  0  0  0  0
    5.3681    0.0715    0.0890 C   0  0  0  0  0  0  0  0  0  0  0  0
    6.8182    0.3188    0.0107 C   0  0  0  0  0  0  0  0  0  0  0  0
    7.3210    1.4207   -0.5433 N   0  0  0  0  0  0  0  0  0  0  0  0
    8.6574    1.5673   -0.5725 C   0  0  0  0  0  0  0  0  0  0  0  0
    9.5149    0.6083   -0.0450 C   0  0  0  0  0  0  0  0  0  0  0  0
   10.8819    0.7597   -0.0753 C   0  0  0  0  0  0  0  0  0  0  0  0
   11.6757   -0.2372    0.4699 C   0  0  0  0  0  0  0  0  0  0  0  0
   11.1458   -1.3669    1.0374 C   0  0  0  0  0  0  0  0  0  0  0  0
    9.7748   -1.5112    1.0640 C   0  0  0  0  0  0  0  0  0  0  0  0
    8.9532   -0.5169    0.5191 C   0  0  0  0  0  0  0  0  0  0  0  0
    7.6229   -0.6232    0.5276 N   0  0  0  0  0  0  0  0  0  0  0  0
    3.0420    0.7485   -0.3416 C   0  0  0  0  0  0  0  0  0  0  0  0
    2.2207    1.7335   -0.8786 C   0  0  0  0  0  0  0  0  0  0  0  0
    0.8371    1.6222   -0.8674 C   0  0  0  0  0  0  0  0  0  0  0  0
    0.2387    0.5108   -0.3125 C   0  0  0  0  0  0  0  0  0  0  0  0
   -1.2157    0.3792   -0.2918 C   0  0  0  0  0  0  0  0  0  0  0  0
   -1.9518    0.9265   -1.3093 C   0  0  0  0  0  0  0  0  0  0  0  0
   -3.3501    0.8125   -1.3081 C   0  0  0  0  0  0  0  0  0  0  0  0
   -4.0136    0.1701   -0.3216 C   0  0  0  0  0  0  0  0  0  0  0  0
   -5.4438   -0.0113   -0.2088 N   0  0  0  0  0  0  0  0  0  0  0  0
   -5.7876   -1.3799    0.1726 C   0  0  0  0  0  0  0  0  0  0  0  0
   -6.6615   -1.7526    1.1115 C   0  0  0  0  0  0  0  0  0  0  0  0
   -6.8925   -3.1206    1.3337 C   0  0  0  0  0  0  0  0  0  0  0  0
   -6.2608   -4.1113    0.6298 C   0  0  0  0  0  0  0  0  0  0  0  0
   -5.3650   -3.6966   -0.3312 C   0  0  0  0  0  0  0  0  0  0  0  0
   -5.1185   -2.3668   -0.5712 C   0  0  0  0  0  0  0  0  0  0  0  0
   -6.4153    0.9509   -0.5574 C   0  0  0  0  0  0  0  0  0  0  0  0
   -7.4107    1.3659    0.3368 C   0  0  0  0  0  0  0  0  0  0  0  0
   -8.4346    2.2146   -0.0447 C   0  0  0  0  0  0  0  0  0  0  0  0
   -8.5315    2.6987   -1.3201 C   0  0  0  0  0  0  0  0  0  0  0  0
   -7.5778    2.3155   -2.2189 C   0  0  0  0  0  0  0  0  0  0  0  0
   -6.5408    1.4553   -1.8380 C   0  0  0  0  0  0  0  0  0  0  0  0
   -3.2498   -0.3916    0.7238 C   0  0  0  0  0  0  0  0  0  0  0  0
   -1.8924   -0.2695    0.7038 C   0  0  0  0  0  0  0  0  0  0  0  0
    1.0192   -0.4824    0.2273 C   0  0  0  0  0  0  0  0  0  0  0  0
    2.4072   -0.3451    0.2027 C   0  0  0  0  0  0  0  0  0  0  0  0
    4.8966    1.8185   -0.8325 H   0  0  0  0  0  0  0  0  0  0  0  0
    4.9907   -0.8311    0.5436 H   0  0  0  0  0  0  0  0  0  0  0  0
    9.1146    2.4390   -1.0088 H   0  0  0  0  0  0  0  0  0  0  0  0
   11.3120    1.6474   -0.5208 H   0  0  0  0  0  0  0  0  0  0  0  0
   12.7607   -0.1576    0.4668 H   0  0  0  0  0  0  0  0  0  0  0  0
   11.7331   -2.1643    1.4718 H   0  0  0  0  0  0  0  0  0  0  0  0
    9.2826   -2.3865    1.5008 H   0  0  0  0  0  0  0  0  0  0  0  0
    2.6989    2.6076   -1.3147 H   0  0  0  0  0  0  0  0  0  0  0  0
    0.1906    2.3833   -1.2827 H   0  0  0  0  0  0  0  0  0  0  0  0
   -1.5041    1.4660   -2.1529 H   0  0  0  0  0  0  0  0  0  0  0  0
   -3.8995    1.2607   -2.1191 H   0  0  0  0  0  0  0  0  0  0  0  0
   -7.1693   -1.0215    1.6912 H   0  0  0  0  0  0  0  0  0  0  0  0
   -7.6171   -3.3917    2.1126 H   0  0  0  0  0  0  0  0  0  0  0  0
   -6.4694   -5.1522    0.8343 H   0  0  0  0  0  0  0  0  0  0  0  0
   -4.8638   -4.4956   -0.8899 H   0  0  0  0  0  0  0  0  0  0  0  0
   -4.3993   -2.0725   -1.3435 H   0  0  0  0  0  0  0  0  0  0  0  0
   -7.3883    1.0651    1.3631 H   0  0  0  0  0  0  0  0  0  0  0  0
   -9.1983    2.5187    0.6801 H   0  0  0  0  0  0  0  0  0  0  0  0
   -9.3425    3.3601   -1.5857 H   0  0  0  0  0  0  0  0  0  0  0  0
   -7.6085    2.6675   -3.2300 H   0  0  0  0  0  0  0  0  0  0  0  0
   -5.8629    1.1587   -2.6021 H   0  0  0  0  0  0  0  0  0  0  0  0
   -3.7569   -0.8979    1.5035 H   0  0  0  0  0  0  0  0  0  0  0  0
   -1.3180   -0.7147    1.5283 H   0  0  0  0  0  0  0  0  0  0  0  0
    0.5501   -1.3621    0.6665 H   0  0  0  0  0  0  0  0  0  0  0  0
    2.9951   -1.1314    0.6289 H   0  0  0  0  0  0  0  0  0  0  0  0
  1  2  2  0
  2  3  1  0
  3  4  2  0
  4  5  1  0
  5  6  2  0
  6  7  1  0
  7  8  2  0
  8  9  1  0
  9 10  2  0
 10 11  1  0
 11 12  2  0
  1 13  1  0
 13 14  2  0
 14 15  1  0
 15 16  2  0
 16 17  1  0
 17 18  2  0
 18 19  1  0
 19 20  2  0
 20 21  1  0
 21 22  1  0
 22 23  2  0
 23 24  1  0
 24 25  2  0
 25 26  1  0
 26 27  2  0
 21 28  1  0
 28 29  2  0
 29 30  1  0
 30 31  2  0
 31 32  1  0
 32 33  2  0
 20 34  1  0
 34 35  2  0
 16 36  1  0
 36 37  2  0
 12  3  1  0
 37 13  1  0
 11  6  1  0
 35 17  1  0
 27 22  1  0
 33 28  1  0
  1 38  1  0
  2 39  1  0
  5 40  1  0
  7 41  1  0
  8 42  1  0
  9 43  1  0
 10 44  1  0
 14 45  1  0
 15 46  1  0
 18 47  1  0
 19 48  1  0
 23 49  1  0
 24 50  1  0
 25 51  1  0
 26 52  1  0
 27 53  1  0
 29 54  1  0
 30 55  1  0
 31 56  1  0
 32 57  1  0
 33 58  1  0
 34 59  1  0
 35 60  1  0
 36 61  1  0
 37 62  1  0
M  END
