
     RDKit          3D

 28 30  0  0  0  0  0  0  0  0999 V2000
    5.2064    1.0274    0.0445 C   0  0  0  0  0  0  0  0  0  0  0  0
    3.8284    1.3052    0.0392 O   0  0  0  0  0  0  0  0  0  0  0  0
    2.8627    0.3200   -0.0834 C   0  0  0  0  0  0  0  0  0  0  0  0
    3.3123   -0.9910   -0.2046 C   0  0  0  0  0  0  0  0  0  0  0  0
    2.3883   -2.0046   -0.3289 C   0  0  0  0  0  0  0  0  0  0  0  0
    1.0209   -1.6951   -0.3307 C   0  0  0  0  0  0  0  0  0  0  0  0
    0.1582   -2.7527   -0.4580 O   0  0  0  0  0  0  0  0  0  0  0  0
    0.5639   -0.4140   -0.2127 C   0  0  0  0  0  0  0  0  0  0  0  0
   -0.8680   -0.0658   -0.2121 C   0  0  0  0  0  0  0  0  0  0  0  0
   -1.3442    1.2107   -0.0950 N   0  0  0  0  0  0  0  0  0  0  0  0
   -2.6857    1.2134   -0.1271 C   0  0  0  0  0  0  0  0  0  0  0  0
   -3.6414    2.1679   -0.0539 N   0  0  0  0  0  0  0  0  0  0  0  0
   -4.9561    1.8869   -0.1139 C   0  0  0  0  0  0  0  0  0  0  0  0
   -5.3603    0.5757   -0.2558 C   0  0  0  0  0  0  0  0  0  0  0  0
   -4.3859   -0.3980   -0.3304 C   0  0  0  0  0  0  0  0  0  0  0  0
   -3.0344   -0.1180   -0.2696 C   0  0  0  0  0  0  0  0  0  0  0  0
   -1.9278   -0.8109   -0.3128 O   0  0  0  0  0  0  0  0  0  0  0  0
    1.5182    0.5815   -0.0894 C   0  0  0  0  0  0  0  0  0  0  0  0
    5.8030    1.9116    0.2811 H   0  0  0  0  0  0  0  0  0  0  0  0
    5.5222    0.5193   -0.8968 H   0  0  0  0  0  0  0  0  0  0  0  0
    5.3658    0.2531    0.8499 H   0  0  0  0  0  0  0  0  0  0  0  0
    4.3745   -1.1877   -0.1989 H   0  0  0  0  0  0  0  0  0  0  0  0
    2.7086   -3.0322   -0.4247 H   0  0  0  0  0  0  0  0  0  0  0  0
   -0.8217   -2.7421   -0.4806 H   0  0  0  0  0  0  0  0  0  0  0  0
   -5.6724    2.7168   -0.0476 H   0  0  0  0  0  0  0  0  0  0  0  0
   -6.4202    0.3464   -0.3045 H   0  0  0  0  0  0  0  0  0  0  0  0
   -4.7027   -1.4232   -0.4414 H   0  0  0  0  0  0  0  0  0  0  0  0
    1.1873    1.5992    0.0051 H   0  0  0  0  0  0  0  0  0  0  0  0
  1  2  1  0
  2  3  1  0
  3  4  2  0
  4  5  1  0
  5  6  2  0
  6  7  1  0
  6  8  1  0
  8  9  1  0
  9 10  2  0
 10 11  1  0
 11 12  2  0
 12 13  1  0
 13 14  2  0
 14 15  1  0
 15 16  2  0
 16 17  1  0
  8 18  2  0
 18  3  1  0
 17  9  1  0
 16 11  1  0
  1 19  1  0
  1 20  1  0
  1 21  1  0
  4 22  1  0
  5 23  1  0
  7 24  1  0
 13 25  1  0
 14 26  1  0
 15 27  1  0
 18 28  1  0
M  END
