
     RDKit          3D

 68 75  0  0  0  0  0  0  0  0999 V2000
    4.6591   -3.2312    4.0817 C   0  0  0  0  0  0  0  0  0  0  0  0
    5.4839   -2.1545    3.8562 C   0  0  0  0  0  0  0  0  0  0  0  0
    5.2832   -1.3568    2.7426 C   0  0  0  0  0  0  0  0  0  0  0  0
    4.2709   -1.6182    1.8503 C   0  0  0  0  0  0  0  0  0  0  0  0
    4.0956   -0.7666    0.6869 C   0  0  0  0  0  0  0  0  0  0  0  0
    5.0223   -0.3310   -0.1847 N   0  0  0  0  0  0  0  0  0  0  0  0
    4.4657    0.4392   -1.1146 N   0  0  0  0  0  0  0  0  0  0  0  0
    5.1435    1.0672   -2.1883 C   0  0  0  0  0  0  0  0  0  0  0  0
    5.9191    2.1798   -1.9947 C   0  0  0  0  0  0  0  0  0  0  0  0
    6.5842    2.7896   -3.0707 C   0  0  0  0  0  0  0  0  0  0  0  0
    6.4566    2.2691   -4.3205 C   0  0  0  0  0  0  0  0  0  0  0  0
    5.6881    1.1614   -4.5314 C   0  0  0  0  0  0  0  0  0  0  0  0
    5.0288    0.5588   -3.4573 C   0  0  0  0  0  0  0  0  0  0  0  0
    3.1579    0.5044   -0.8419 C   0  0  0  0  0  0  0  0  0  0  0  0
    2.1475    1.1380   -1.4484 N   0  0  0  0  0  0  0  0  0  0  0  0
    0.8837    1.0560   -0.9751 C   0  0  0  0  0  0  0  0  0  0  0  0
   -0.1638    1.7040   -1.5914 C   0  0  0  0  0  0  0  0  0  0  0  0
   -1.4423    1.6269   -1.1202 C   0  0  0  0  0  0  0  0  0  0  0  0
   -1.7817    0.8690    0.0444 C   0  0  0  0  0  0  0  0  0  0  0  0
   -3.1575    0.9022    0.3837 N   0  0  0  0  0  0  0  0  0  0  0  0
   -3.6422    1.1128    1.6906 C   0  0  0  0  0  0  0  0  0  0  0  0
   -4.6583    2.0401    1.9605 C   0  0  0  0  0  0  0  0  0  0  0  0
   -5.1897    2.2352    3.2201 C   0  0  0  0  0  0  0  0  0  0  0  0
   -4.7425    1.5193    4.2901 C   0  0  0  0  0  0  0  0  0  0  0  0
   -3.7566    0.6034    4.0876 C   0  0  0  0  0  0  0  0  0  0  0  0
   -3.2319    0.4167    2.8162 C   0  0  0  0  0  0  0  0  0  0  0  0
   -4.1243    0.6114   -0.6457 C   0  0  0  0  0  0  0  0  0  0  0  0
   -4.8772    1.6040   -1.1999 C   0  0  0  0  0  0  0  0  0  0  0  0
   -5.8616    1.3056   -2.1532 C   0  0  0  0  0  0  0  0  0  0  0  0
   -6.0346   -0.0195   -2.5058 C   0  0  0  0  0  0  0  0  0  0  0  0
   -5.2707   -1.0136   -1.9434 C   0  0  0  0  0  0  0  0  0  0  0  0
   -5.4742   -2.3191   -2.3119 C   0  0  0  0  0  0  0  0  0  0  0  0
   -4.7406   -3.3644   -1.7734 C   0  0  0  0  0  0  0  0  0  0  0  0
   -3.7733   -3.0809   -0.8347 C   0  0  0  0  0  0  0  0  0  0  0  0
   -3.5661   -1.7540   -0.4600 C   0  0  0  0  0  0  0  0  0  0  0  0
   -4.2884   -0.7188   -0.9908 C   0  0  0  0  0  0  0  0  0  0  0  0
   -0.7399    0.2485    0.6222 C   0  0  0  0  0  0  0  0  0  0  0  0
    0.5719    0.3221    0.1471 C   0  0  0  0  0  0  0  0  0  0  0  0
    1.6027   -0.3340    0.7793 C   0  0  0  0  0  0  0  0  0  0  0  0
    2.9071   -0.2383    0.2745 C   0  0  0  0  0  0  0  0  0  0  0  0
    3.4351   -2.6853    2.0519 C   0  0  0  0  0  0  0  0  0  0  0  0
    3.6452   -3.4743    3.1673 C   0  0  0  0  0  0  0  0  0  0  0  0
    4.7729   -3.8926    4.9440 H   0  0  0  0  0  0  0  0  0  0  0  0
    6.2681   -1.9531    4.5485 H   0  0  0  0  0  0  0  0  0  0  0  0
    5.9476   -0.5192    2.5937 H   0  0  0  0  0  0  0  0  0  0  0  0
    6.0545    2.6337   -1.0238 H   0  0  0  0  0  0  0  0  0  0  0  0
    7.1981    3.6714   -2.9136 H   0  0  0  0  0  0  0  0  0  0  0  0
    6.9928    2.7746   -5.1381 H   0  0  0  0  0  0  0  0  0  0  0  0
    5.6110    0.7786   -5.5326 H   0  0  0  0  0  0  0  0  0  0  0  0
    4.4296   -0.3200   -3.6766 H   0  0  0  0  0  0  0  0  0  0  0  0
    0.0464    2.3022   -2.4944 H   0  0  0  0  0  0  0  0  0  0  0  0
   -2.2022    2.1573   -1.6523 H   0  0  0  0  0  0  0  0  0  0  0  0
   -5.0476    2.6337    1.1648 H   0  0  0  0  0  0  0  0  0  0  0  0
   -5.9807    2.9813    3.3362 H   0  0  0  0  0  0  0  0  0  0  0  0
   -5.1868    1.7038    5.2637 H   0  0  0  0  0  0  0  0  0  0  0  0
   -3.4077    0.0402    4.9403 H   0  0  0  0  0  0  0  0  0  0  0  0
   -2.4895   -0.3407    2.7522 H   0  0  0  0  0  0  0  0  0  0  0  0
   -4.6972    2.6252   -0.9454 H   0  0  0  0  0  0  0  0  0  0  0  0
   -6.4391    2.1141   -2.5695 H   0  0  0  0  0  0  0  0  0  0  0  0
   -6.7787   -0.2933   -3.2340 H   0  0  0  0  0  0  0  0  0  0  0  0
   -6.2387   -2.5377   -3.0528 H   0  0  0  0  0  0  0  0  0  0  0  0
   -4.9274   -4.3830   -2.0872 H   0  0  0  0  0  0  0  0  0  0  0  0
   -3.2129   -3.9050   -0.4263 H   0  0  0  0  0  0  0  0  0  0  0  0
   -2.8280   -1.5709    0.2662 H   0  0  0  0  0  0  0  0  0  0  0  0
   -0.8584   -0.3615    1.4842 H   0  0  0  0  0  0  0  0  0  0  0  0
    1.4246   -0.9207    1.6647 H   0  0  0  0  0  0  0  0  0  0  0  0
    2.6324   -2.9328    1.3773 H   0  0  0  0  0  0  0  0  0  0  0  0
    2.9827   -4.3097    3.3159 H   0  0  0  0  0  0  0  0  0  0  0  0
  1  2  2  0
  2  3  1  0
  3  4  2  0
  4  5  1  0
  5  6  2  0
  6  7  1  0
  7  8  1  0
  8  9  2  0
  9 10  1  0
 10 11  2  0
 11 12  1  0
 12 13  2  0
  7 14  1  0
 14 15  2  0
 15 16  1  0
 16 17  2  0
 17 18  1  0
 18 19  2  0
 19 20  1  0
 20 21  1  0
 21 22  2  0
 22 23  1  0
 23 24  2  0
 24 25  1  0
 25 26  2  0
 20 27  1  0
 27 28  2  0
 28 29  1  0
 29 30  2  0
 30 31  1  0
 31 32  2  0
 32 33  1  0
 33 34  2  0
 34 35  1  0
 35 36  2  0
 19 37  1  0
 37 38  2  0
 38 39  1  0
 39 40  2  0
  4 41  1  0
 41 42  2  0
 42  1  1  0
 40  5  1  0
 13  8  1  0
 40 14  1  0
 38 16  1  0
 26 21  1  0
 36 27  1  0
 36 31  1  0
  1 43  1  0
  2 44  1  0
  3 45  1  0
  9 46  1  0
 10 47  1  0
 11 48  1  0
 12 49  1  0
 13 50  1  0
 17 51  1  0
 18 52  1  0
 22 53  1  0
 23 54  1  0
 24 55  1  0
 25 56  1  0
 26 57  1  0
 28 58  1  0
 29 59  1  0
 30 60  1  0
 32 61  1  0
 33 62  1  0
 34 63  1  0
 35 64  1  0
 37 65  1  0
 39 66  1  0
 41 67  1  0
 42 68  1  0
M  END
