
     RDKit          3D

 46 49  0  0  0  0  0  0  0  0999 V2000
   -4.6425    1.1381   -0.6564 C   0  0  0  0  0  0  0  0  0  0  0  0
   -3.5583    0.2528   -0.1383 C   0  0  0  0  0  0  0  0  0  0  0  0
   -3.9350   -0.8941    0.5367 C   0  0  0  0  0  0  0  0  0  0  0  0
   -2.9767   -1.7378    1.0302 C   0  0  0  0  0  0  0  0  0  0  0  0
   -3.4122   -2.8813    1.7028 C   0  0  0  0  0  0  0  0  0  0  0  0
   -2.5004   -3.7650    2.2194 C   0  0  0  0  0  0  0  0  0  0  0  0
   -1.1652   -3.5159    2.0696 C   0  0  0  0  0  0  0  0  0  0  0  0
   -0.7065   -2.3850    1.4042 C   0  0  0  0  0  0  0  0  0  0  0  0
   -1.6202   -1.5108    0.8933 C   0  0  0  0  0  0  0  0  0  0  0  0
   -1.2161   -0.3602    0.2161 C   0  0  0  0  0  0  0  0  0  0  0  0
   -2.2120    0.4911   -0.2817 C   0  0  0  0  0  0  0  0  0  0  0  0
   -1.5685    1.5354   -0.8973 C   0  0  0  0  0  0  0  0  0  0  0  0
   -2.0330    2.6771   -1.5668 C   0  0  0  0  0  0  0  0  0  0  0  0
   -1.1265    3.5754   -2.0970 C   0  0  0  0  0  0  0  0  0  0  0  0
    0.2162    3.3741   -1.9822 C   0  0  0  0  0  0  0  0  0  0  0  0
    0.6829    2.2527   -1.3245 C   0  0  0  0  0  0  0  0  0  0  0  0
   -0.2280    1.3592   -0.7972 C   0  0  0  0  0  0  0  0  0  0  0  0
   -0.0197    0.1689   -0.0980 N   0  0  0  0  0  0  0  0  0  0  0  0
    1.2737   -0.3220    0.1856 C   0  0  0  0  0  0  0  0  0  0  0  0
    1.6874   -1.3083    0.7685 O   0  0  0  0  0  0  0  0  0  0  0  0
    2.3907    0.4442   -0.2762 O   0  0  0  0  0  0  0  0  0  0  0  0
    3.7210    0.0633   -0.0585 C   0  0  0  0  0  0  0  0  0  0  0  0
    4.0473   -1.2813   -0.6673 C   0  0  0  0  0  0  0  0  0  0  0  0
    4.0878    0.0945    1.4254 C   0  0  0  0  0  0  0  0  0  0  0  0
    4.6001    1.0827   -0.7390 C   0  0  0  0  0  0  0  0  0  0  0  0
   -4.6411    1.1438   -1.7653 H   0  0  0  0  0  0  0  0  0  0  0  0
   -4.6896    2.1148   -0.1787 H   0  0  0  0  0  0  0  0  0  0  0  0
   -5.6378    0.6579   -0.4120 H   0  0  0  0  0  0  0  0  0  0  0  0
   -4.9797   -1.1113    0.6671 H   0  0  0  0  0  0  0  0  0  0  0  0
   -4.4729   -3.0576    1.8091 H   0  0  0  0  0  0  0  0  0  0  0  0
   -2.8517   -4.6470    2.7382 H   0  0  0  0  0  0  0  0  0  0  0  0
   -0.4728   -4.2465    2.4968 H   0  0  0  0  0  0  0  0  0  0  0  0
    0.3120   -2.2851    1.3425 H   0  0  0  0  0  0  0  0  0  0  0  0
   -3.0814    2.8147   -1.6447 H   0  0  0  0  0  0  0  0  0  0  0  0
   -1.5294    4.4401   -2.6039 H   0  0  0  0  0  0  0  0  0  0  0  0
    0.9399    4.1013   -2.4113 H   0  0  0  0  0  0  0  0  0  0  0  0
    1.7507    2.1172   -1.2474 H   0  0  0  0  0  0  0  0  0  0  0  0
    3.2149   -1.6267   -1.3075 H   0  0  0  0  0  0  0  0  0  0  0  0
    4.2210   -1.9789    0.1839 H   0  0  0  0  0  0  0  0  0  0  0  0
    4.9912   -1.2585   -1.2506 H   0  0  0  0  0  0  0  0  0  0  0  0
    3.1509    0.0392    1.9957 H   0  0  0  0  0  0  0  0  0  0  0  0
    4.6912    0.9927    1.6775 H   0  0  0  0  0  0  0  0  0  0  0  0
    4.7064   -0.7852    1.6882 H   0  0  0  0  0  0  0  0  0  0  0  0
    5.5739    1.0898   -0.2071 H   0  0  0  0  0  0  0  0  0  0  0  0
    4.8234    0.8148   -1.7896 H   0  0  0  0  0  0  0  0  0  0  0  0
    4.1944    2.1228   -0.6526 H   0  0  0  0  0  0  0  0  0  0  0  0
  1  2  1  0
  2  3  2  0
  3  4  1  0
  4  5  2  0
  5  6  1  0
  6  7  2  0
  7  8  1  0
  8  9  2  0
  9 10  1  0
 10 11  2  0
 11 12  1  0
 12 13  2  0
 13 14  1  0
 14 15  2  0
 15 16  1  0
 16 17  2  0
 17 18  1  0
 18 19  1  0
 19 20  2  0
 19 21  1  0
 21 22  1  0
 22 23  1  0
 22 24  1  0
 22 25  1  0
 11  2  1  0
 17 12  1  0
  9  4  1  0
 18 10  1  0
  1 26  1  0
  1 27  1  0
  1 28  1  0
  3 29  1  0
  5 30  1  0
  6 31  1  0
  7 32  1  0
  8 33  1  0
 13 34  1  0
 14 35  1  0
 15 36  1  0
 16 37  1  0
 23 38  1  0
 23 39  1  0
 23 40  1  0
 24 41  1  0
 24 42  1  0
 24 43  1  0
 25 44  1  0
 25 45  1  0
 25 46  1  0
M  END
