
     RDKit          3D

 37 40  0  0  0  0  0  0  0  0999 V2000
   -5.6651    1.1491    0.9568 C   0  0  0  0  0  0  0  0  0  0  0  0
   -4.7501    0.3547    0.0990 C   0  0  0  0  0  0  0  0  0  0  0  0
   -5.2770   -0.4707   -0.8739 C   0  0  0  0  0  0  0  0  0  0  0  0
   -4.4132   -1.2008   -1.6610 C   0  0  0  0  0  0  0  0  0  0  0  0
   -3.0234   -1.1084   -1.4787 C   0  0  0  0  0  0  0  0  0  0  0  0
   -2.5086   -0.2895   -0.5138 C   0  0  0  0  0  0  0  0  0  0  0  0
   -1.0544   -0.1607   -0.2864 C   0  0  0  0  0  0  0  0  0  0  0  0
   -0.1706   -0.8252   -0.9975 C   0  0  0  0  0  0  0  0  0  0  0  0
    1.2639   -0.6706   -0.7412 C   0  0  0  0  0  0  0  0  0  0  0  0
    2.1548   -1.3971   -1.5296 C   0  0  0  0  0  0  0  0  0  0  0  0
    3.5176   -1.3119   -1.3629 C   0  0  0  0  0  0  0  0  0  0  0  0
    3.9856   -0.4773   -0.3818 C   0  0  0  0  0  0  0  0  0  0  0  0
    5.3431   -0.3922   -0.2164 C   0  0  0  0  0  0  0  0  0  0  0  0
    5.8390    0.4371    0.7593 C   0  0  0  0  0  0  0  0  0  0  0  0
    4.9542    1.1540    1.5371 C   0  0  0  0  0  0  0  0  0  0  0  0
    3.5798    1.0788    1.3822 C   0  0  0  0  0  0  0  0  0  0  0  0
    3.0864    0.2448    0.4012 C   0  0  0  0  0  0  0  0  0  0  0  0
    1.7644    0.1328    0.2061 N   0  0  0  0  0  4  0  0  0  0  0  0
    0.8148    0.9219    1.0701 B   0  0  0  0  0  4  0  0  0  0  0  0
    1.0460    2.3722    0.9358 F   0  0  0  0  0  0  0  0  0  0  0  0
    1.0023    0.5297    2.4620 F   0  0  0  0  0  0  0  0  0  0  0  0
   -0.5960    0.6901    0.7114 O   0  0  0  0  0  0  0  0  0  0  0  0
   -3.3888    0.4388    0.2702 C   0  0  0  0  0  0  0  0  0  0  0  0
   -5.2726    2.2033    0.9528 H   0  0  0  0  0  0  0  0  0  0  0  0
   -6.6696    1.2037    0.5154 H   0  0  0  0  0  0  0  0  0  0  0  0
   -5.6507    0.7622    1.9848 H   0  0  0  0  0  0  0  0  0  0  0  0
   -6.3523   -0.4996   -0.9663 H   0  0  0  0  0  0  0  0  0  0  0  0
   -4.8070   -1.8416   -2.4154 H   0  0  0  0  0  0  0  0  0  0  0  0
   -2.4059   -1.7117   -2.1344 H   0  0  0  0  0  0  0  0  0  0  0  0
   -0.5026   -1.5113   -1.8007 H   0  0  0  0  0  0  0  0  0  0  0  0
    1.7776   -2.0518   -2.2999 H   0  0  0  0  0  0  0  0  0  0  0  0
    4.1593   -1.9027   -2.0084 H   0  0  0  0  0  0  0  0  0  0  0  0
    6.0409   -0.9630   -0.8360 H   0  0  0  0  0  0  0  0  0  0  0  0
    6.9145    0.5120    0.8990 H   0  0  0  0  0  0  0  0  0  0  0  0
    5.3153    1.8258    2.3254 H   0  0  0  0  0  0  0  0  0  0  0  0
    2.9355    1.6768    2.0347 H   0  0  0  0  0  0  0  0  0  0  0  0
   -2.9869    1.0983    1.0466 H   0  0  0  0  0  0  0  0  0  0  0  0
  1  2  1  0
  2  3  2  0
  3  4  1  0
  4  5  2  0
  5  6  1  0
  6  7  1  0
  7  8  2  0
  8  9  1  0
  9 10  2  0
 10 11  1  0
 11 12  2  0
 12 13  1  0
 13 14  2  0
 14 15  1  0
 15 16  2  0
 16 17  1  0
 17 18  2  0
 18 19  1  0
 19 20  1  0
 19 21  1  0
 19 22  1  0
  6 23  2  0
 23  2  1  0
 22  7  1  0
 18  9  1  0
 17 12  1  0
  1 24  1  0
  1 25  1  0
  1 26  1  0
  3 27  1  0
  4 28  1  0
  5 29  1  0
  8 30  1  0
 10 31  1  0
 11 32  1  0
 13 33  1  0
 14 34  1  0
 15 35  1  0
 16 36  1  0
 23 37  1  0
M  CHG  2  18   1  19  -1
M  END
