
     RDKit          3D

 65 68  0  0  0  0  0  0  0  0999 V2000
   -7.7949    1.1416   -1.2707 C   0  0  0  0  0  0  0  0  0  0  0  0
   -7.9813    0.5355    0.0889 C   0  0  0  0  0  0  0  0  0  0  0  0
   -6.9518   -0.4738    0.4684 C   0  0  0  0  0  0  0  0  0  0  0  0
   -5.5877    0.0125    0.7376 C   0  0  0  0  0  0  0  0  0  0  0  0
   -4.9055    0.7025   -0.4002 C   0  0  0  0  0  0  0  0  0  0  0  0
   -3.5479    1.2010    0.0712 C   0  0  0  0  0  0  0  0  0  0  0  0
   -2.5652    0.2626    0.5408 C   0  0  0  0  0  0  0  0  0  0  0  0
   -2.0532   -0.8436   -0.3871 C   0  0  0  0  0  0  0  0  0  0  0  0
   -0.9808   -1.4113    0.3803 N   0  0  0  0  0  0  0  0  0  0  0  0
    0.2139   -0.5560    0.5801 C   0  0  0  0  0  0  0  0  0  0  0  0
    0.2040    0.5193   -0.3268 C   0  0  0  0  0  0  0  0  0  0  0  0
    1.4605    1.2418   -0.3449 C   0  0  0  0  0  0  0  0  0  0  0  0
    2.4655    0.9041    0.3903 C   0  0  0  0  0  0  0  0  0  0  0  0
    3.7451    1.4846   -0.0322 C   0  0  0  0  0  0  0  0  0  0  0  0
    4.8976    2.0118   -0.4067 C   0  0  0  0  0  0  0  0  0  0  0  0
    6.0577    2.5463   -0.7815 C   0  0  0  0  0  0  0  0  0  0  0  0
    6.2386    3.4035   -1.9175 C   0  0  0  0  0  0  0  0  0  0  0  0
    7.3828    3.7448   -2.4668 C   0  0  0  0  0  0  0  0  0  0  0  0
    8.6821    3.2623   -1.9489 C   0  0  0  0  0  0  0  0  0  0  0  0
    9.7541    3.6701   -2.5752 O   0  0  0  0  0  0  0  0  0  0  0  0
   11.0917    3.3139   -2.2139 C   0  0  0  0  0  0  0  0  0  0  0  0
    8.4642    2.4650   -0.8729 C   0  0  0  0  0  0  0  0  0  0  0  0
    7.3147    2.0847   -0.2736 C   0  0  0  0  0  0  0  0  0  0  0  0
    2.4779   -0.1662    1.3088 C   0  0  0  0  0  0  0  0  0  0  0  0
    1.2352   -0.8700    1.3165 C   0  0  0  0  0  0  0  0  0  0  0  0
    1.2301   -2.2700    2.4140 S   0  0  0  0  0  0  0  0  0  0  0  0
   -0.1840   -3.2660    1.7629 C   0  0  0  0  0  0  0  0  0  0  0  0
   -0.1932   -4.5902    2.3055 C   0  0  0  0  0  0  0  0  0  0  0  0
   -1.3367   -5.2837    1.9157 C   0  0  0  0  0  0  0  0  0  0  0  0
   -1.3824   -6.6860    2.3819 C   0  0  0  0  0  0  0  0  0  0  0  0
   -0.2166   -7.0282    2.9870 O   0  0  0  0  0  0  0  0  0  0  0  0
   -2.2697   -4.8003    1.1692 C   0  0  0  0  0  0  0  0  0  0  0  0
   -2.2413   -3.4365    0.6147 C   0  0  0  0  0  0  0  0  0  0  0  0
   -1.0882   -2.7222    0.9995 C   0  0  0  0  0  0  0  0  0  0  0  0
   -7.6117    2.2072   -1.3028 H   0  0  0  0  0  0  0  0  0  0  0  0
   -8.8071    0.9325   -1.8012 H   0  0  0  0  0  0  0  0  0  0  0  0
   -7.0730    0.5887   -1.8864 H   0  0  0  0  0  0  0  0  0  0  0  0
   -8.9978    0.1251    0.2454 H   0  0  0  0  0  0  0  0  0  0  0  0
   -7.9086    1.3845    0.8253 H   0  0  0  0  0  0  0  0  0  0  0  0
   -7.4044   -1.0454    1.3483 H   0  0  0  0  0  0  0  0  0  0  0  0
   -6.9374   -1.2679   -0.3391 H   0  0  0  0  0  0  0  0  0  0  0  0
   -5.5455    0.6730    1.6487 H   0  0  0  0  0  0  0  0  0  0  0  0
   -4.9663   -0.9260    1.0632 H   0  0  0  0  0  0  0  0  0  0  0  0
   -4.8700    0.0550   -1.2781 H   0  0  0  0  0  0  0  0  0  0  0  0
   -5.4724    1.6481   -0.5721 H   0  0  0  0  0  0  0  0  0  0  0  0
   -3.1606    1.9740   -0.6624 H   0  0  0  0  0  0  0  0  0  0  0  0
   -3.7834    1.8952    0.9660 H   0  0  0  0  0  0  0  0  0  0  0  0
   -3.0807   -0.3158    1.4279 H   0  0  0  0  0  0  0  0  0  0  0  0
   -1.7218    0.7411    1.0791 H   0  0  0  0  0  0  0  0  0  0  0  0
   -1.7743   -0.4081   -1.3602 H   0  0  0  0  0  0  0  0  0  0  0  0
   -2.8765   -1.5300   -0.6682 H   0  0  0  0  0  0  0  0  0  0  0  0
   -0.5575    0.8529   -0.9313 H   0  0  0  0  0  0  0  0  0  0  0  0
    1.5086    2.0604   -1.0742 H   0  0  0  0  0  0  0  0  0  0  0  0
    5.2482    3.7424   -2.3101 H   0  0  0  0  0  0  0  0  0  0  0  0
    7.5215    4.3983   -3.3302 H   0  0  0  0  0  0  0  0  0  0  0  0
   11.5846    2.7447   -3.0388 H   0  0  0  0  0  0  0  0  0  0  0  0
   11.0740    2.7096   -1.3132 H   0  0  0  0  0  0  0  0  0  0  0  0
   11.6527    4.2527   -1.9303 H   0  0  0  0  0  0  0  0  0  0  0  0
    9.3940    2.0941   -0.3383 H   0  0  0  0  0  0  0  0  0  0  0  0
    7.2339    1.4277    0.6106 H   0  0  0  0  0  0  0  0  0  0  0  0
    3.3225   -0.3493    1.8886 H   0  0  0  0  0  0  0  0  0  0  0  0
    0.5956   -4.9086    2.9047 H   0  0  0  0  0  0  0  0  0  0  0  0
   -2.0283   -7.3945    2.3656 H   0  0  0  0  0  0  0  0  0  0  0  0
   -3.1551   -5.3312    0.8524 H   0  0  0  0  0  0  0  0  0  0  0  0
   -3.0384   -3.1344    0.0600 H   0  0  0  0  0  0  0  0  0  0  0  0
  1  2  1  0
  2  3  1  0
  3  4  1  0
  4  5  1  0
  5  6  1  0
  6  7  1  0
  7  8  1  0
  8  9  1  0
  9 10  1  0
 10 11  2  0
 11 12  1  0
 12 13  2  0
 13 14  1  0
 14 15  3  0
 15 16  1  0
 16 17  2  0
 17 18  1  0
 18 19  2  0
 19 20  1  0
 20 21  1  0
 19 22  1  0
 22 23  2  0
 13 24  1  0
 24 25  2  0
 25 26  1  0
 26 27  1  0
 27 28  2  0
 28 29  1  0
 29 30  1  0
 30 31  2  0
 29 32  2  0
 32 33  1  0
 33 34  2  0
 34  9  1  0
 25 10  1  0
 34 27  1  0
 23 16  1  0
  1 35  1  0
  1 36  1  0
  1 37  1  0
  2 38  1  0
  2 39  1  0
  3 40  1  0
  3 41  1  0
  4 42  1  0
  4 43  1  0
  5 44  1  0
  5 45  1  0
  6 46  1  0
  6 47  1  0
  7 48  1  0
  7 49  1  0
  8 50  1  0
  8 51  1  0
 11 52  1  0
 12 53  1  0
 17 54  1  0
 18 55  1  0
 21 56  1  0
 21 57  1  0
 21 58  1  0
 22 59  1  0
 23 60  1  0
 24 61  1  0
 28 62  1  0
 30 63  1  0
 32 64  1  0
 33 65  1  0
M  END
