
     RDKit          3D

 48 51  0  0  0  0  0  0  0  0999 V2000
   -7.1309    0.2959   -0.1955 C   0  0  0  0  0  0  0  0  0  0  0  0
   -6.0905    0.1310   -0.6911 C   0  0  0  0  0  0  0  0  0  0  0  0
   -4.8073   -0.0553   -1.2863 C   0  0  0  0  0  0  0  0  0  0  0  0
   -4.3805   -1.3436   -1.4667 C   0  0  0  0  0  0  0  0  0  0  0  0
   -3.0193   -1.6293   -1.5907 C   0  0  0  0  0  0  0  0  0  0  0  0
   -2.1375   -0.6190   -1.5338 C   0  0  0  0  0  0  0  0  0  0  0  0
   -0.7079   -0.8150   -1.2547 C   0  0  0  0  0  0  0  0  0  0  0  0
    0.4393   -0.9656   -1.0120 C   0  0  0  0  0  0  0  0  0  0  0  0
    1.7960   -1.1619   -0.7070 C   0  0  0  0  0  0  0  0  0  0  0  0
    2.1769   -0.5463    0.5638 C   0  0  0  0  0  0  0  0  0  0  0  0
    3.5246   -0.5911    0.8475 C   0  0  0  0  0  0  0  0  0  0  0  0
    4.4340   -1.1393    0.0472 C   0  0  0  0  0  0  0  0  0  0  0  0
    5.7614   -0.8594    0.1021 C   0  0  0  0  0  0  0  0  0  0  0  0
    7.0368   -0.5835    0.1334 C   0  0  0  0  0  0  0  0  0  0  0  0
    8.4157   -0.2623    0.1576 C   0  0  0  0  0  0  0  0  0  0  0  0
    9.1786   -0.6556    1.2010 C   0  0  0  0  0  0  0  0  0  0  0  0
   10.4580   -0.1945    1.4204 C   0  0  0  0  0  0  0  0  0  0  0  0
   10.9808    0.7241    0.5152 C   0  0  0  0  0  0  0  0  0  0  0  0
   10.1994    1.1337   -0.5670 C   0  0  0  0  0  0  0  0  0  0  0  0
    8.9413    0.6724   -0.7713 C   0  0  0  0  0  0  0  0  0  0  0  0
    4.0255   -1.7627   -1.2105 C   0  0  0  0  0  0  0  0  0  0  0  0
    2.6664   -1.7123   -1.4920 C   0  0  0  0  0  0  0  0  0  0  0  0
   -2.5705    0.7118   -1.3680 C   0  0  0  0  0  0  0  0  0  0  0  0
   -3.8599    0.9894   -1.2560 C   0  0  0  0  0  0  0  0  0  0  0  0
   -8.3886    0.5128    0.3972 C   0  0  0  0  0  0  0  0  0  0  0  0
   -9.1268    1.6522    0.1760 C   0  0  0  0  0  0  0  0  0  0  0  0
  -10.0768    2.0785    1.1190 C   0  0  0  0  0  0  0  0  0  0  0  0
  -10.3177    1.3937    2.2756 C   0  0  0  0  0  0  0  0  0  0  0  0
   -9.5844    0.2315    2.5046 C   0  0  0  0  0  0  0  0  0  0  0  0
   -8.6407   -0.2064    1.5871 C   0  0  0  0  0  0  0  0  0  0  0  0
   -5.1037   -2.1373   -1.5161 H   0  0  0  0  0  0  0  0  0  0  0  0
   -2.6996   -2.6416   -1.7140 H   0  0  0  0  0  0  0  0  0  0  0  0
    1.4208   -0.1354    1.1949 H   0  0  0  0  0  0  0  0  0  0  0  0
    3.7920   -0.1093    1.8066 H   0  0  0  0  0  0  0  0  0  0  0  0
    8.7782   -1.3972    1.9156 H   0  0  0  0  0  0  0  0  0  0  0  0
   11.0766   -0.5061    2.2503 H   0  0  0  0  0  0  0  0  0  0  0  0
   11.9552    1.1171    0.6859 H   0  0  0  0  0  0  0  0  0  0  0  0
   10.6440    1.8651   -1.2679 H   0  0  0  0  0  0  0  0  0  0  0  0
    8.3060    0.9667   -1.5919 H   0  0  0  0  0  0  0  0  0  0  0  0
    4.7470   -2.1976   -1.8484 H   0  0  0  0  0  0  0  0  0  0  0  0
    2.3590   -2.1996   -2.4545 H   0  0  0  0  0  0  0  0  0  0  0  0
   -1.8005    1.4930   -1.3371 H   0  0  0  0  0  0  0  0  0  0  0  0
   -4.2301    2.0151   -1.1261 H   0  0  0  0  0  0  0  0  0  0  0  0
   -8.9334    2.1691   -0.7441 H   0  0  0  0  0  0  0  0  0  0  0  0
  -10.6287    3.0027    0.9066 H   0  0  0  0  0  0  0  0  0  0  0  0
  -11.0451    1.7589    3.0208 H   0  0  0  0  0  0  0  0  0  0  0  0
   -9.7559   -0.3142    3.4210 H   0  0  0  0  0  0  0  0  0  0  0  0
   -8.0776   -1.1045    1.7532 H   0  0  0  0  0  0  0  0  0  0  0  0
  1  2  3  0
  2  3  1  0
  3  4  2  0
  4  5  1  0
  5  6  2  0
  6  7  1  0
  7  8  3  0
  8  9  1  0
  9 10  2  0
 10 11  1  0
 11 12  2  0
 12 13  1  0
 13 14  3  0
 14 15  1  0
 15 16  2  0
 16 17  1  0
 17 18  2  0
 18 19  1  0
 19 20  2  0
 12 21  1  0
 21 22  2  0
  6 23  1  0
 23 24  2  0
  1 25  1  0
 25 26  2  0
 26 27  1  0
 27 28  2  0
 28 29  1  0
 29 30  2  0
 24  3  1  0
 30 25  1  0
 22  9  1  0
 20 15  1  0
  4 31  1  0
  5 32  1  0
 10 33  1  0
 11 34  1  0
 16 35  1  0
 17 36  1  0
 18 37  1  0
 19 38  1  0
 20 39  1  0
 21 40  1  0
 22 41  1  0
 23 42  1  0
 24 43  1  0
 26 44  1  0
 27 45  1  0
 28 46  1  0
 29 47  1  0
 30 48  1  0
M  END
