
     RDKit          3D

 45 48  0  0  0  0  0  0  0  0999 V2000
    8.6309    0.0794   -1.7647 O   0  0  0  0  0  0  0  0  0  0  0  0
    7.9464    1.0422   -1.4133 N   0  0  0  0  0  4  0  0  0  0  0  0
    8.5487    2.2782   -1.3606 O   0  0  0  0  0  1  0  0  0  0  0  0
    6.5705    0.9257   -1.0634 C   0  0  0  0  0  0  0  0  0  0  0  0
    5.8412    2.0081   -0.6792 C   0  0  0  0  0  0  0  0  0  0  0  0
    4.5196    1.8548   -0.3503 C   0  0  0  0  0  0  0  0  0  0  0  0
    3.8616    0.6181   -0.3881 C   0  0  0  0  0  0  0  0  0  0  0  0
    2.4534    0.5288   -0.0248 C   0  0  0  0  0  0  0  0  0  0  0  0
    1.8208   -0.6149   -0.0533 C   0  0  0  0  0  0  0  0  0  0  0  0
    0.3941   -0.6082    0.3316 C   0  0  0  0  0  0  0  0  0  0  0  0
   -0.3755    0.4578    0.7239 C   0  0  0  0  0  0  0  0  0  0  0  0
   -1.6521    0.0499    0.9963 N   0  0  0  0  0  0  0  0  0  0  0  0
   -2.9302    1.1012    1.5145 S   0  0  0  0  0  6  0  0  0  0  0  0
   -3.4557    0.6383    2.8685 O   0  0  0  0  0  0  0  0  0  0  0  0
   -2.3716    2.4787    1.7609 O   0  0  0  0  0  0  0  0  0  0  0  0
   -4.2588    1.1499    0.3873 C   0  0  0  0  0  0  0  0  0  0  0  0
   -5.3817    0.3699    0.5337 C   0  0  0  0  0  0  0  0  0  0  0  0
   -6.4136    0.4285   -0.3832 C   0  0  0  0  0  0  0  0  0  0  0  0
   -6.3037    1.2821   -1.4510 C   0  0  0  0  0  0  0  0  0  0  0  0
   -5.1787    2.0770   -1.6155 C   0  0  0  0  0  0  0  0  0  0  0  0
   -4.1579    2.0066   -0.6918 C   0  0  0  0  0  0  0  0  0  0  0  0
   -1.6578   -1.2699    0.7687 C   0  0  0  0  0  0  0  0  0  0  0  0
   -2.6906   -2.1817    0.8902 C   0  0  0  0  0  0  0  0  0  0  0  0
   -2.4320   -3.5184    0.5899 C   0  0  0  0  0  0  0  0  0  0  0  0
   -1.1881   -3.9487    0.1802 C   0  0  0  0  0  0  0  0  0  0  0  0
   -0.1476   -3.0494    0.0547 C   0  0  0  0  0  0  0  0  0  0  0  0
   -0.4130   -1.7207    0.3555 C   0  0  0  0  0  0  0  0  0  0  0  0
    4.6304   -0.4462   -0.7798 C   0  0  0  0  0  0  0  0  0  0  0  0
    5.9749   -0.2982   -1.1158 C   0  0  0  0  0  0  0  0  0  0  0  0
    6.3516    2.9703   -0.6493 H   0  0  0  0  0  0  0  0  0  0  0  0
    3.9345    2.7100   -0.0443 H   0  0  0  0  0  0  0  0  0  0  0  0
    1.9074    1.4413    0.2806 H   0  0  0  0  0  0  0  0  0  0  0  0
    2.3152   -1.5191   -0.3434 H   0  0  0  0  0  0  0  0  0  0  0  0
   -0.0567    1.4831    0.8163 H   0  0  0  0  0  0  0  0  0  0  0  0
   -5.4258   -0.2836    1.3938 H   0  0  0  0  0  0  0  0  0  0  0  0
   -7.2730   -0.2012   -0.2272 H   0  0  0  0  0  0  0  0  0  0  0  0
   -7.1241    1.3220   -2.1709 H   0  0  0  0  0  0  0  0  0  0  0  0
   -5.1225    2.7442   -2.4739 H   0  0  0  0  0  0  0  0  0  0  0  0
   -3.2740    2.6180   -0.8032 H   0  0  0  0  0  0  0  0  0  0  0  0
   -3.6530   -1.8441    1.2104 H   0  0  0  0  0  0  0  0  0  0  0  0
   -3.2757   -4.1859    0.7024 H   0  0  0  0  0  0  0  0  0  0  0  0
   -1.0464   -5.0034   -0.0400 H   0  0  0  0  0  0  0  0  0  0  0  0
    0.8301   -3.3813   -0.2662 H   0  0  0  0  0  0  0  0  0  0  0  0
    4.2090   -1.4227   -0.8361 H   0  0  0  0  0  0  0  0  0  0  0  0
    6.5196   -1.1664   -1.4131 H   0  0  0  0  0  0  0  0  0  0  0  0
  1  2  2  0
  2  3  1  0
  2  4  1  0
  4  5  2  0
  5  6  1  0
  6  7  2  0
  7  8  1  0
  8  9  2  0
  9 10  1  0
 10 11  2  0
 11 12  1  0
 12 13  1  0
 13 14  2  0
 13 15  2  0
 13 16  1  0
 16 17  2  0
 17 18  1  0
 18 19  2  0
 19 20  1  0
 20 21  2  0
 12 22  1  0
 22 23  2  0
 23 24  1  0
 24 25  2  0
 25 26  1  0
 26 27  2  0
  7 28  1  0
 28 29  2  0
 29  4  1  0
 27 10  1  0
 21 16  1  0
 27 22  1  0
  5 30  1  0
  6 31  1  0
  8 32  1  0
  9 33  1  0
 11 34  1  0
 17 35  1  0
 18 36  1  0
 19 37  1  0
 20 38  1  0
 21 39  1  0
 23 40  1  0
 24 41  1  0
 25 42  1  0
 26 43  1  0
 28 44  1  0
 29 45  1  0
M  CHG  2   2   1   3  -1
M  END
