
     RDKit          3D

 83 89  0  0  0  0  0  0  0  0999 V2000
    1.4531   -0.0646    2.8975 C   0  0  0  0  0  0  0  0  0  0  0  0
    0.5441   -1.1671    2.4417 C   0  0  0  0  0  0  0  0  0  0  0  0
    0.7204   -1.6224    1.0651 C   0  0  0  0  0  0  0  0  0  0  0  0
    0.4740   -0.6764   -0.0711 C   0  0  0  0  0  0  0  0  0  0  0  0
    0.7270   -1.4705   -1.3583 C   0  0  0  0  0  0  0  0  0  0  0  0
    0.5781   -0.7537   -2.6246 C   0  0  0  0  0  0  0  0  0  0  0  0
   -0.7399   -0.1959   -3.0100 C   0  0  0  0  0  0  0  0  0  0  0  0
   -0.8921   -0.1001    0.0016 C   0  0  0  0  0  0  0  0  0  0  0  0
   -2.1710   -0.6367    0.0470 C   0  0  0  0  0  0  0  0  0  0  0  0
   -3.3170    0.1107    0.1225 C   0  0  0  0  0  0  0  0  0  0  0  0
   -4.6467   -0.4991    0.1679 C   0  0  0  0  0  0  0  0  0  0  0  0
   -4.9493   -1.8417    0.1453 C   0  0  0  0  0  0  0  0  0  0  0  0
   -6.3008   -1.9523    0.2054 C   0  0  0  0  0  0  0  0  0  0  0  0
   -6.8118   -0.6521    0.2648 C   0  0  0  0  0  0  0  0  0  0  0  0
   -8.2149   -0.2683    0.3407 C   0  0  0  0  0  0  0  0  0  0  0  0
   -9.2364   -1.1903    0.3628 C   0  0  0  0  0  0  0  0  0  0  0  0
  -10.5497   -0.7834    0.4348 C   0  0  0  0  0  0  0  0  0  0  0  0
  -10.8883    0.5523    0.4871 C   0  0  0  0  0  0  0  0  0  0  0  0
  -12.2272    0.9750    0.5607 O   0  0  0  0  0  0  0  0  0  0  0  0
  -13.2894    0.0486    0.5842 C   0  0  0  0  0  0  0  0  0  0  0  0
   -9.8712    1.4790    0.4653 C   0  0  0  0  0  0  0  0  0  0  0  0
   -8.5336    1.0725    0.3922 C   0  0  0  0  0  0  0  0  0  0  0  0
   -5.7896    0.1315    0.2385 O   0  0  0  0  0  0  0  0  0  0  0  0
   -3.1836    1.4849    0.1550 C   0  0  0  0  0  0  0  0  0  0  0  0
   -1.9397    2.0746    0.1132 C   0  0  0  0  0  0  0  0  0  0  0  0
   -0.8032    1.2767    0.0372 C   0  0  0  0  0  0  0  0  0  0  0  0
    0.5884    1.6245    0.0005 C   0  0  0  0  0  0  0  0  0  0  0  0
    1.1889    2.8726    0.0116 C   0  0  0  0  0  0  0  0  0  0  0  0
    2.5568    3.0061   -0.0312 C   0  0  0  0  0  0  0  0  0  0  0  0
    3.3387    1.8782   -0.0860 C   0  0  0  0  0  0  0  0  0  0  0  0
    4.7888    2.0111   -0.1323 C   0  0  0  0  0  0  0  0  0  0  0  0
    5.5005    3.1926   -0.1255 C   0  0  0  0  0  0  0  0  0  0  0  0
    6.8348    2.8628   -0.1801 C   0  0  0  0  0  0  0  0  0  0  0  0
    6.8948    1.4857   -0.2186 C   0  0  0  0  0  0  0  0  0  0  0  0
    8.1226    0.6632   -0.2826 C   0  0  0  0  0  0  0  0  0  0  0  0
    9.3523    1.2574   -0.3080 C   0  0  0  0  0  0  0  0  0  0  0  0
   10.4603    0.4292   -0.3692 C   0  0  0  0  0  0  0  0  0  0  0  0
   10.3207   -0.9442   -0.4029 C   0  0  0  0  0  0  0  0  0  0  0  0
   11.4507   -1.7597   -0.4643 O   0  0  0  0  0  0  0  0  0  0  0  0
   11.3554   -3.1597   -0.5004 C   0  0  0  0  0  0  0  0  0  0  0  0
    9.0776   -1.5384   -0.3769 C   0  0  0  0  0  0  0  0  0  0  0  0
    7.9823   -0.7048   -0.3161 C   0  0  0  0  0  0  0  0  0  0  0  0
    5.6779    1.0485   -0.1882 O   0  0  0  0  0  0  0  0  0  0  0  0
    2.7320    0.6490   -0.0963 C   0  0  0  0  0  0  0  0  0  0  0  0
    1.3686    0.4970   -0.0541 C   0  0  0  0  0  0  0  0  0  0  0  0
    1.5071   -0.1393    4.0424 H   0  0  0  0  0  0  0  0  0  0  0  0
    2.4957   -0.2903    2.5645 H   0  0  0  0  0  0  0  0  0  0  0  0
    1.0948    0.9355    2.6563 H   0  0  0  0  0  0  0  0  0  0  0  0
    0.7487   -2.0289    3.1617 H   0  0  0  0  0  0  0  0  0  0  0  0
   -0.5168   -0.9046    2.7071 H   0  0  0  0  0  0  0  0  0  0  0  0
    1.7846   -2.0065    0.9662 H   0  0  0  0  0  0  0  0  0  0  0  0
    0.1140   -2.5725    0.9380 H   0  0  0  0  0  0  0  0  0  0  0  0
    1.7607   -1.8807   -1.2523 H   0  0  0  0  0  0  0  0  0  0  0  0
    0.0838   -2.4038   -1.3154 H   0  0  0  0  0  0  0  0  0  0  0  0
    1.3547    0.0565   -2.7379 H   0  0  0  0  0  0  0  0  0  0  0  0
    0.8721   -1.4774   -3.4539 H   0  0  0  0  0  0  0  0  0  0  0  0
   -0.8326   -0.1745   -4.1598 H   0  0  0  0  0  0  0  0  0  0  0  0
   -0.8584    0.8720   -2.7424 H   0  0  0  0  0  0  0  0  0  0  0  0
   -1.6204   -0.7591   -2.6977 H   0  0  0  0  0  0  0  0  0  0  0  0
   -2.2707   -1.7277    0.0208 H   0  0  0  0  0  0  0  0  0  0  0  0
   -4.2200   -2.6555    0.0890 H   0  0  0  0  0  0  0  0  0  0  0  0
   -6.8704   -2.8670    0.2072 H   0  0  0  0  0  0  0  0  0  0  0  0
   -8.9792   -2.2349    0.3223 H   0  0  0  0  0  0  0  0  0  0  0  0
  -11.3062   -1.5464    0.4490 H   0  0  0  0  0  0  0  0  0  0  0  0
  -14.2057    0.5809    0.9324 H   0  0  0  0  0  0  0  0  0  0  0  0
  -13.5180   -0.3605   -0.4404 H   0  0  0  0  0  0  0  0  0  0  0  0
  -13.0466   -0.8173    1.2359 H   0  0  0  0  0  0  0  0  0  0  0  0
  -10.1184    2.5451    0.5061 H   0  0  0  0  0  0  0  0  0  0  0  0
   -7.7358    1.8015    0.3750 H   0  0  0  0  0  0  0  0  0  0  0  0
   -4.0852    2.0957    0.2147 H   0  0  0  0  0  0  0  0  0  0  0  0
   -1.8537    3.1560    0.1399 H   0  0  0  0  0  0  0  0  0  0  0  0
    0.5971    3.7780    0.0544 H   0  0  0  0  0  0  0  0  0  0  0  0
    2.9999    4.0165   -0.0208 H   0  0  0  0  0  0  0  0  0  0  0  0
    5.0961    4.2152   -0.0845 H   0  0  0  0  0  0  0  0  0  0  0  0
    7.6736    3.5467   -0.1910 H   0  0  0  0  0  0  0  0  0  0  0  0
    9.4232    2.3397   -0.2802 H   0  0  0  0  0  0  0  0  0  0  0  0
   11.4273    0.9004   -0.3891 H   0  0  0  0  0  0  0  0  0  0  0  0
   11.0027   -3.5441   -1.4770 H   0  0  0  0  0  0  0  0  0  0  0  0
   12.3651   -3.5929   -0.2834 H   0  0  0  0  0  0  0  0  0  0  0  0
   10.6526   -3.4993    0.2724 H   0  0  0  0  0  0  0  0  0  0  0  0
    8.9445   -2.6125   -0.4025 H   0  0  0  0  0  0  0  0  0  0  0  0
    6.9977   -1.1608   -0.2950 H   0  0  0  0  0  0  0  0  0  0  0  0
    3.3084   -0.2856   -0.1391 H   0  0  0  0  0  0  0  0  0  0  0  0
  1  2  1  0
  2  3  1  0
  3  4  1  0
  4  5  1  0
  5  6  1  0
  6  7  1  0
  4  8  1  0
  8  9  2  0
  9 10  1  0
 10 11  1  0
 11 12  2  0
 12 13  1  0
 13 14  2  0
 14 15  1  0
 15 16  2  0
 16 17  1  0
 17 18  2  0
 18 19  1  0
 19 20  1  0
 18 21  1  0
 21 22  2  0
 14 23  1  0
 10 24  2  0
 24 25  1  0
 25 26  2  0
 26 27  1  0
 27 28  2  0
 28 29  1  0
 29 30  2  0
 30 31  1  0
 31 32  2  0
 32 33  1  0
 33 34  2  0
 34 35  1  0
 35 36  2  0
 36 37  1  0
 37 38  2  0
 38 39  1  0
 39 40  1  0
 38 41  1  0
 41 42  2  0
 34 43  1  0
 30 44  1  0
 44 45  2  0
 45  4  1  0
 26  8  1  0
 45 27  1  0
 23 11  1  0
 43 31  1  0
 22 15  1  0
 42 35  1  0
  1 46  1  0
  1 47  1  0
  1 48  1  0
  2 49  1  0
  2 50  1  0
  3 51  1  0
  3 52  1  0
  5 53  1  0
  5 54  1  0
  6 55  1  0
  6 56  1  0
  7 57  1  0
  7 58  1  0
  7 59  1  0
  9 60  1  0
 12 61  1  0
 13 62  1  0
 16 63  1  0
 17 64  1  0
 20 65  1  0
 20 66  1  0
 20 67  1  0
 21 68  1  0
 22 69  1  0
 24 70  1  0
 25 71  1  0
 28 72  1  0
 29 73  1  0
 32 74  1  0
 33 75  1  0
 36 76  1  0
 37 77  1  0
 40 78  1  0
 40 79  1  0
 40 80  1  0
 41 81  1  0
 42 82  1  0
 44 83  1  0
M  END
