
     RDKit          3D

 80 87  0  0  0  0  0  0  0  0999 V2000
    1.3009   -4.4512    0.2176 C   0  0  0  0  0  0  0  0  0  0  0  0
    1.6231   -2.9997    0.1965 C   0  0  0  0  0  0  0  0  0  0  0  0
    2.8410   -2.5405    0.1734 N   0  0  0  0  0  4  0  0  0  0  0  0
    2.7956   -1.1278    0.1580 C   0  0  0  0  0  0  0  0  0  0  0  0
    3.9166   -0.3994    0.1325 C   0  0  0  0  0  0  0  0  0  0  0  0
    3.7852    1.0274    0.1185 N   0  0  0  0  0  0  0  0  0  0  0  0
    4.0630    1.8239   -1.0355 C   0  0  0  0  0  0  0  0  0  0  0  0
    3.8677    3.2682   -0.7574 C   0  0  0  0  0  0  0  0  0  0  0  0
    3.4345    4.0928   -1.7972 C   0  0  0  0  0  0  0  0  0  0  0  0
    3.2539    5.4334   -1.5526 C   0  0  0  0  0  0  0  0  0  0  0  0
    3.4816    6.0063   -0.3217 C   0  0  0  0  0  0  0  0  0  0  0  0
    3.9052    5.2113    0.7019 C   0  0  0  0  0  0  0  0  0  0  0  0
    4.0908    3.8574    0.4672 C   0  0  0  0  0  0  0  0  0  0  0  0
    5.2290   -1.0302    0.1194 C   0  0  0  0  0  0  0  0  0  0  0  0
    6.5204   -0.5073    0.0926 C   0  0  0  0  0  0  0  0  0  0  0  0
    7.4235   -1.5433    0.0897 C   0  0  0  0  0  0  0  0  0  0  0  0
    6.6656   -2.6932    0.1151 C   0  0  0  0  0  0  0  0  0  0  0  0
    7.2177   -4.0893    0.1217 C   0  0  0  0  0  0  0  0  0  0  0  0
    5.3483   -2.3572    0.1325 N   0  0  0  0  0  0  0  0  0  0  0  0
    4.1551   -3.2787    0.1626 B   0  0  0  0  0  4  0  0  0  0  0  0
    4.2628   -4.1988   -0.9664 F   0  0  0  0  0  0  0  0  0  0  0  0
    4.2204   -4.0918    1.3773 F   0  0  0  0  0  0  0  0  0  0  0  0
    1.3817   -0.7841    0.1748 C   0  0  0  0  0  0  0  0  0  0  0  0
    0.6595   -1.9212    0.1985 C   0  0  0  0  0  0  0  0  0  0  0  0
   -0.8100   -1.9741    0.2194 C   0  0  0  0  0  0  0  0  0  0  0  0
   -1.6498   -0.8525    0.2128 C   0  0  0  0  0  0  0  0  0  0  0  0
   -2.9538   -1.2888    0.2390 C   0  0  0  0  0  0  0  0  0  0  0  0
   -2.9557   -2.6299    0.2609 N   0  0  0  0  0  0  0  0  0  0  0  0
   -1.6464   -3.0508    0.2492 C   0  0  0  0  0  0  0  0  0  0  0  0
   -4.2001   -3.5003    0.2869 B   0  0  0  0  0  4  0  0  0  0  0  0
   -4.1364   -4.3448   -0.9209 F   0  0  0  0  0  0  0  0  0  0  0  0
   -4.1597   -4.4237    1.4110 F   0  0  0  0  0  0  0  0  0  0  0  0
   -5.4658   -2.6666    0.2789 N   0  0  0  0  0  4  0  0  0  0  0  0
   -6.7349   -3.0208    0.2948 C   0  0  0  0  0  0  0  0  0  0  0  0
   -7.5668   -1.8293    0.2773 C   0  0  0  0  0  0  0  0  0  0  0  0
   -6.7769   -0.7706    0.2512 C   0  0  0  0  0  0  0  0  0  0  0  0
   -5.3916   -1.2577    0.2507 C   0  0  0  0  0  0  0  0  0  0  0  0
   -4.2544   -0.5946    0.2344 C   0  0  0  0  0  0  0  0  0  0  0  0
   -4.2088    0.8506    0.1635 C   0  0  0  0  0  0  0  0  0  0  0  0
   -3.6074    1.6013    1.1392 C   0  0  0  0  0  0  0  0  0  0  0  0
   -3.0433    0.9306    2.3493 C   0  0  0  0  0  0  0  0  0  0  0  0
   -3.5571    2.9639    0.9903 C   0  0  0  0  0  0  0  0  0  0  0  0
   -4.1021    3.5979   -0.1255 C   0  0  0  0  0  0  0  0  0  0  0  0
   -4.0494    5.0748   -0.2889 C   0  0  0  0  0  0  0  0  0  0  0  0
   -4.7074    2.8602   -1.1099 C   0  0  0  0  0  0  0  0  0  0  0  0
   -4.7484    1.4744   -0.9414 C   0  0  0  0  0  0  0  0  0  0  0  0
   -5.3905    0.7253   -2.0540 C   0  0  0  0  0  0  0  0  0  0  0  0
    0.7403   -4.7013   -0.7032 H   0  0  0  0  0  0  0  0  0  0  0  0
    0.7664   -4.7779    1.1108 H   0  0  0  0  0  0  0  0  0  0  0  0
    2.2236   -5.0756    0.1664 H   0  0  0  0  0  0  0  0  0  0  0  0
    3.4690    1.4995    0.9927 H   0  0  0  0  0  0  0  0  0  0  0  0
    3.3222    1.5466   -1.8412 H   0  0  0  0  0  0  0  0  0  0  0  0
    5.0860    1.6663   -1.4310 H   0  0  0  0  0  0  0  0  0  0  0  0
    3.2569    3.6396   -2.7607 H   0  0  0  0  0  0  0  0  0  0  0  0
    2.9141    6.0762   -2.3713 H   0  0  0  0  0  0  0  0  0  0  0  0
    3.3455    7.0598   -0.1065 H   0  0  0  0  0  0  0  0  0  0  0  0
    4.1067    5.5996    1.7107 H   0  0  0  0  0  0  0  0  0  0  0  0
    4.4325    3.2445    1.3008 H   0  0  0  0  0  0  0  0  0  0  0  0
    6.7954    0.5356    0.0762 H   0  0  0  0  0  0  0  0  0  0  0  0
    8.5119   -1.4779    0.0715 H   0  0  0  0  0  0  0  0  0  0  0  0
    7.0691   -4.5626    1.1139 H   0  0  0  0  0  0  0  0  0  0  0  0
    6.5778   -4.6795   -0.5931 H   0  0  0  0  0  0  0  0  0  0  0  0
    8.2626   -4.0594   -0.2052 H   0  0  0  0  0  0  0  0  0  0  0  0
    0.9669    0.1943    0.1697 H   0  0  0  0  0  0  0  0  0  0  0  0
   -1.3293    0.1554    0.1877 H   0  0  0  0  0  0  0  0  0  0  0  0
   -1.3257   -4.0912    0.2623 H   0  0  0  0  0  0  0  0  0  0  0  0
   -7.0469   -4.0660    0.3176 H   0  0  0  0  0  0  0  0  0  0  0  0
   -8.6642   -1.8103    0.2848 H   0  0  0  0  0  0  0  0  0  0  0  0
   -7.0635    0.2585    0.2361 H   0  0  0  0  0  0  0  0  0  0  0  0
   -1.9587    1.0456    2.3581 H   0  0  0  0  0  0  0  0  0  0  0  0
   -3.3753   -0.1055    2.3941 H   0  0  0  0  0  0  0  0  0  0  0  0
   -3.5118    1.4241    3.2543 H   0  0  0  0  0  0  0  0  0  0  0  0
   -3.0859    3.5565    1.7526 H   0  0  0  0  0  0  0  0  0  0  0  0
   -4.9125    5.4997    0.2520 H   0  0  0  0  0  0  0  0  0  0  0  0
   -3.1178    5.5085    0.1383 H   0  0  0  0  0  0  0  0  0  0  0  0
   -4.0730    5.3459   -1.3663 H   0  0  0  0  0  0  0  0  0  0  0  0
   -5.1383    3.3199   -1.9840 H   0  0  0  0  0  0  0  0  0  0  0  0
   -5.0057    1.1360   -3.0405 H   0  0  0  0  0  0  0  0  0  0  0  0
   -5.0942   -0.3343   -2.0355 H   0  0  0  0  0  0  0  0  0  0  0  0
   -6.4705    0.8479   -2.0982 H   0  0  0  0  0  0  0  0  0  0  0  0
  1  2  1  0
  2  3  2  0
  3  4  1  0
  4  5  2  0
  5  6  1  0
  6  7  1  0
  7  8  1  0
  8  9  2  0
  9 10  1  0
 10 11  2  0
 11 12  1  0
 12 13  2  0
  5 14  1  0
 14 15  2  0
 15 16  1  0
 16 17  2  0
 17 18  1  0
 17 19  1  0
 19 20  1  0
 20 21  1  0
 20 22  1  0
  4 23  1  0
 23 24  2  0
 24 25  1  0
 25 26  1  0
 26 27  2  0
 27 28  1  0
 28 29  1  0
 28 30  1  0
 30 31  1  0
 30 32  1  0
 30 33  1  0
 33 34  2  0
 34 35  1  0
 35 36  2  0
 36 37  1  0
 37 38  2  0
 38 39  1  0
 39 40  2  0
 40 41  1  0
 40 42  1  0
 42 43  2  0
 43 44  1  0
 43 45  1  0
 45 46  2  0
 46 47  1  0
 24  2  1  0
 29 25  2  0
 37 33  1  0
 46 39  1  0
 20  3  1  0
 38 27  1  0
 13  8  1  0
 19 14  1  0
  1 48  1  0
  1 49  1  0
  1 50  1  0
  6 51  1  0
  7 52  1  0
  7 53  1  0
  9 54  1  0
 10 55  1  0
 11 56  1  0
 12 57  1  0
 13 58  1  0
 15 59  1  0
 16 60  1  0
 18 61  1  0
 18 62  1  0
 18 63  1  0
 23 64  1  0
 26 65  1  0
 29 66  1  0
 34 67  1  0
 35 68  1  0
 36 69  1  0
 41 70  1  0
 41 71  1  0
 41 72  1  0
 42 73  1  0
 44 74  1  0
 44 75  1  0
 44 76  1  0
 45 77  1  0
 47 78  1  0
 47 79  1  0
 47 80  1  0
M  CHG  4   3   1  20  -1  30  -1  33   1
M  END
