
     RDKit          3D

 34 37  0  0  0  0  0  0  0  0999 V2000
   -0.1085   -3.3451   -1.5417 F   0  0  0  0  0  0  0  0  0  0  0  0
   -0.0591   -1.9203   -1.9050 B   0  0  0  0  0  4  0  0  0  0  0  0
   -0.2428   -1.7569   -3.3362 F   0  0  0  0  0  0  0  0  0  0  0  0
    1.2353   -1.4105   -1.4333 O   0  0  0  0  0  0  0  0  0  0  0  0
    1.3859   -0.4243   -0.4607 C   0  0  0  0  0  0  0  0  0  0  0  0
    2.7465    0.0008   -0.0746 C   0  0  0  0  0  0  0  0  0  0  0  0
    2.9735    0.9547    0.8641 C   0  0  0  0  0  0  0  0  0  0  0  0
    4.2922    1.3215    1.1936 C   0  0  0  0  0  0  0  0  0  0  0  0
    5.3792    0.7391    0.5890 C   0  0  0  0  0  0  0  0  0  0  0  0
    5.1420   -0.2283   -0.3628 C   0  0  0  0  0  0  0  0  0  0  0  0
    3.8522   -0.5900   -0.6879 C   0  0  0  0  0  0  0  0  0  0  0  0
    0.2950    0.0876    0.0741 C   0  0  0  0  0  0  0  0  0  0  0  0
   -1.0645   -0.3249   -0.2996 C   0  0  0  0  0  0  0  0  0  0  0  0
   -2.1426    0.3050    0.3517 C   0  0  0  0  0  0  0  0  0  0  0  0
   -1.9859    1.2730    1.3061 C   0  0  0  0  0  0  0  0  0  0  0  0
   -3.0950    1.8337    1.8896 C   0  0  0  0  0  0  0  0  0  0  0  0
   -4.3797    1.4356    1.5283 C   0  0  0  0  0  0  0  0  0  0  0  0
   -4.5241    0.4661    0.5720 C   0  0  0  0  0  0  0  0  0  0  0  0
   -3.4237   -0.1087   -0.0252 C   0  0  0  0  0  0  0  0  0  0  0  0
   -3.5685   -1.0835   -0.9867 C   0  0  0  0  0  0  0  0  0  0  0  0
   -2.4947   -1.6747   -1.5995 C   0  0  0  0  0  0  0  0  0  0  0  0
   -1.2623   -1.2662   -1.2265 N   0  0  0  0  0  4  0  0  0  0  0  0
    2.1562    1.4532    1.3787 H   0  0  0  0  0  0  0  0  0  0  0  0
    4.4545    2.0708    1.9313 H   0  0  0  0  0  0  0  0  0  0  0  0
    6.4030    0.9987    0.8198 H   0  0  0  0  0  0  0  0  0  0  0  0
    6.0061   -0.6966   -0.8486 H   0  0  0  0  0  0  0  0  0  0  0  0
    3.6378   -1.3452   -1.4302 H   0  0  0  0  0  0  0  0  0  0  0  0
    0.3969    0.8390    0.8155 H   0  0  0  0  0  0  0  0  0  0  0  0
   -1.0374    1.6177    1.6232 H   0  0  0  0  0  0  0  0  0  0  0  0
   -3.0459    2.6026    2.6497 H   0  0  0  0  0  0  0  0  0  0  0  0
   -5.2367    1.8777    1.9879 H   0  0  0  0  0  0  0  0  0  0  0  0
   -5.5108    0.1335    0.2679 H   0  0  0  0  0  0  0  0  0  0  0  0
   -4.5880   -1.3918   -1.2659 H   0  0  0  0  0  0  0  0  0  0  0  0
   -2.5861   -2.4432   -2.3581 H   0  0  0  0  0  0  0  0  0  0  0  0
  1  2  1  0
  2  3  1  0
  2  4  1  0
  4  5  1  0
  5  6  1  0
  6  7  2  0
  7  8  1  0
  8  9  2  0
  9 10  1  0
 10 11  2  0
  5 12  2  0
 12 13  1  0
 13 14  2  0
 14 15  1  0
 15 16  2  0
 16 17  1  0
 17 18  2  0
 18 19  1  0
 19 20  2  0
 20 21  1  0
 21 22  2  0
 22  2  1  0
 11  6  1  0
 22 13  1  0
 19 14  1  0
  7 23  1  0
  8 24  1  0
  9 25  1  0
 10 26  1  0
 11 27  1  0
 12 28  1  0
 15 29  1  0
 16 30  1  0
 17 31  1  0
 18 32  1  0
 20 33  1  0
 21 34  1  0
M  CHG  2   2  -1  22   1
M  END
