
     RDKit          3D

 40 44  0  0  0  0  0  0  0  0999 V2000
    1.6066   -2.8994   -0.5794 O   0  0  0  0  0  0  0  0  0  0  0  0
    0.7943   -2.0020   -0.2334 C   0  0  0  0  0  0  0  0  0  0  0  0
   -0.5486   -1.9957   -0.8008 C   0  0  0  0  0  0  0  0  0  0  0  0
   -0.9162   -2.9768   -1.7143 C   0  0  0  0  0  0  0  0  0  0  0  0
   -2.1703   -3.0130   -2.2767 C   0  0  0  0  0  0  0  0  0  0  0  0
   -3.0966   -2.0532   -1.9312 C   0  0  0  0  0  0  0  0  0  0  0  0
   -2.7571   -1.0747   -1.0316 C   0  0  0  0  0  0  0  0  0  0  0  0
   -3.6776   -0.1229   -0.6898 C   0  0  0  0  0  0  0  0  0  0  0  0
   -3.3387    0.8543    0.2084 C   0  0  0  0  0  0  0  0  0  0  0  0
   -4.2696    1.8028    0.5434 C   0  0  0  0  0  0  0  0  0  0  0  0
   -3.9589    2.7909    1.4379 C   0  0  0  0  0  0  0  0  0  0  0  0
   -2.7094    2.8414    2.0094 C   0  0  0  0  0  0  0  0  0  0  0  0
   -1.7509    1.8844    1.6797 C   0  0  0  0  0  0  0  0  0  0  0  0
   -2.0596    0.9040    0.7919 C   0  0  0  0  0  0  0  0  0  0  0  0
   -1.1165   -0.0533    0.4555 C   0  0  0  0  0  0  0  0  0  0  0  0
   -1.4930   -1.0471   -0.4716 C   0  0  0  0  0  0  0  0  0  0  0  0
    0.2040   -0.0286    1.0372 C   0  0  0  0  0  0  0  0  0  0  0  0
    0.6094    0.8150    1.8609 O   0  0  0  0  0  0  0  0  0  0  0  0
    1.2018   -1.0182    0.6992 N   0  0  0  0  0  0  0  0  0  0  0  0
    2.5312   -1.0084    1.2742 C   0  0  0  0  0  0  0  0  0  0  0  0
    3.4936   -0.2123    0.4645 C   0  0  0  0  0  0  0  0  0  0  0  0
    3.7300    1.1307    0.6747 C   0  0  0  0  0  0  0  0  0  0  0  0
    4.6322    1.8561   -0.0925 C   0  0  0  0  0  0  0  0  0  0  0  0
    5.3312    1.2365   -1.1082 C   0  0  0  0  0  0  0  0  0  0  0  0
    5.0778   -0.1072   -1.2994 C   0  0  0  0  0  0  0  0  0  0  0  0
    4.1989   -0.7903   -0.5436 N   0  0  0  0  0  0  0  0  0  0  0  0
   -0.1712   -3.7055   -1.9589 H   0  0  0  0  0  0  0  0  0  0  0  0
   -2.4421   -3.7943   -2.9952 H   0  0  0  0  0  0  0  0  0  0  0  0
   -4.0900   -2.1009   -2.3913 H   0  0  0  0  0  0  0  0  0  0  0  0
   -4.6912   -0.1250   -1.1234 H   0  0  0  0  0  0  0  0  0  0  0  0
   -5.2769    1.7938    0.1070 H   0  0  0  0  0  0  0  0  0  0  0  0
   -4.7220    3.5329    1.6850 H   0  0  0  0  0  0  0  0  0  0  0  0
   -2.4547    3.6294    2.7258 H   0  0  0  0  0  0  0  0  0  0  0  0
   -0.8273    1.9992    2.1619 H   0  0  0  0  0  0  0  0  0  0  0  0
    2.5085   -0.5908    2.3241 H   0  0  0  0  0  0  0  0  0  0  0  0
    2.9161   -2.0571    1.4175 H   0  0  0  0  0  0  0  0  0  0  0  0
    3.1990    1.6401    1.4606 H   0  0  0  0  0  0  0  0  0  0  0  0
    4.8251    2.9089    0.0637 H   0  0  0  0  0  0  0  0  0  0  0  0
    6.0472    1.7479   -1.7400 H   0  0  0  0  0  0  0  0  0  0  0  0
    5.6312   -0.5915   -2.1013 H   0  0  0  0  0  0  0  0  0  0  0  0
  1  2  2  0
  2  3  1  0
  3  4  1  0
  4  5  2  0
  5  6  1  0
  6  7  2  0
  7  8  1  0
  8  9  2  0
  9 10  1  0
 10 11  2  0
 11 12  1  0
 12 13  2  0
 13 14  1  0
 14 15  2  0
 15 16  1  0
 15 17  1  0
 17 18  2  0
 17 19  1  0
 19 20  1  0
 20 21  1  0
 21 22  2  0
 22 23  1  0
 23 24  2  0
 24 25  1  0
 25 26  2  0
 19  2  1  0
 26 21  1  0
 16  3  2  0
 16  7  1  0
 14  9  1  0
  4 27  1  0
  5 28  1  0
  6 29  1  0
  8 30  1  0
 10 31  1  0
 11 32  1  0
 12 33  1  0
 13 34  1  0
 20 35  1  0
 20 36  1  0
 22 37  1  0
 23 38  1  0
 24 39  1  0
 25 40  1  0
M  END
