
     RDKit          3D

 32 33  0  0  0  0  0  0  0  0999 V2000
   -5.5230   -1.3008   -1.6543 C   0  0  0  0  0  0  0  0  0  0  0  0
   -4.2538   -0.7488   -2.3193 C   0  0  0  0  0  0  0  0  0  0  0  0
   -3.3742   -0.2377   -1.3468 O   0  0  0  0  0  0  0  0  0  0  0  0
   -2.1627    0.3020   -1.7336 C   0  0  0  0  0  0  0  0  0  0  0  0
   -1.9015    0.2888   -2.9705 O   0  0  0  0  0  0  0  0  0  0  0  0
   -1.2045    0.8652   -0.8967 N   0  0  0  0  0  0  0  0  0  0  0  0
   -0.2024    0.2927   -0.3585 C   0  0  0  0  0  0  0  0  0  0  0  0
    0.6226    0.9941    0.4240 O   0  0  0  0  0  0  0  0  0  0  0  0
    1.6675    0.4997    1.0136 C   0  0  0  0  0  0  0  0  0  0  0  0
    2.4732    1.2912    1.8072 C   0  0  0  0  0  0  0  0  0  0  0  0
    2.1003    2.6100    1.9326 O   0  0  0  0  0  0  0  0  0  0  0  0
    2.8647    3.4940    2.7194 C   0  0  0  0  0  0  0  0  0  0  0  0
    3.5806    0.7671    2.4283 C   0  0  0  0  0  0  0  0  0  0  0  0
    3.9234   -0.5825    2.2758 C   0  0  0  0  0  0  0  0  0  0  0  0
    3.1217   -1.3624    1.4894 C   0  0  0  0  0  0  0  0  0  0  0  0
    1.9890   -0.8277    0.8534 C   0  0  0  0  0  0  0  0  0  0  0  0
    1.1875   -1.6068    0.0655 C   0  0  0  0  0  0  0  0  0  0  0  0
    0.0703   -1.0247   -0.5488 C   0  0  0  0  0  0  0  0  0  0  0  0
   -0.7759   -1.8551   -1.3683 C   0  0  0  0  0  0  0  0  0  0  0  0
   -1.4485   -2.5431   -2.0287 N   0  0  0  0  0  0  0  0  0  0  0  0
   -5.3611   -2.4081   -1.5711 H   0  0  0  0  0  0  0  0  0  0  0  0
   -5.5934   -0.9262   -0.6082 H   0  0  0  0  0  0  0  0  0  0  0  0
   -6.4058   -1.0780   -2.2608 H   0  0  0  0  0  0  0  0  0  0  0  0
   -3.7888   -1.5054   -2.9626 H   0  0  0  0  0  0  0  0  0  0  0  0
   -4.5625    0.0716   -3.0350 H   0  0  0  0  0  0  0  0  0  0  0  0
    3.1849    3.0280    3.6702 H   0  0  0  0  0  0  0  0  0  0  0  0
    3.7844    3.7441    2.1400 H   0  0  0  0  0  0  0  0  0  0  0  0
    2.3076    4.4528    2.9059 H   0  0  0  0  0  0  0  0  0  0  0  0
    4.2104    1.4018    3.0513 H   0  0  0  0  0  0  0  0  0  0  0  0
    4.7794   -1.0123    2.7465 H   0  0  0  0  0  0  0  0  0  0  0  0
    3.2978   -2.4177    1.3064 H   0  0  0  0  0  0  0  0  0  0  0  0
    1.3932   -2.6660   -0.0957 H   0  0  0  0  0  0  0  0  0  0  0  0
  1  2  1  0
  2  3  1  0
  3  4  1  0
  4  5  2  0
  4  6  1  0
  6  7  2  0
  7  8  1  0
  8  9  1  0
  9 10  2  0
 10 11  1  0
 11 12  1  0
 10 13  1  0
 13 14  2  0
 14 15  1  0
 15 16  2  0
 16 17  1  0
 17 18  2  0
 18 19  1  0
 19 20  3  0
 18  7  1  0
 16  9  1  0
  1 21  1  0
  1 22  1  0
  1 23  1  0
  2 24  1  0
  2 25  1  0
 12 26  1  0
 12 27  1  0
 12 28  1  0
 13 29  1  0
 14 30  1  0
 15 31  1  0
 17 32  1  0
M  END
