
     RDKit          3D

 92100  0  0  0  0  0  0  0  0999 V2000
   13.2815   -2.2836    1.7583 C   0  0  0  0  0  0  0  0  0  0  0  0
   12.9187   -2.2237    0.2871 C   0  0  0  0  0  0  0  0  0  0  0  0
   11.8076   -1.3216    0.0843 N   0  0  0  0  0  0  0  0  0  0  0  0
   11.9173   -0.0033   -0.1589 C   0  0  0  0  0  0  0  0  0  0  0  0
   12.9974    0.8550   -0.2864 C   0  0  0  0  0  0  0  0  0  0  0  0
   12.7967    2.1920   -0.5422 C   0  0  0  0  0  0  0  0  0  0  0  0
   11.4968    2.6421   -0.6658 C   0  0  0  0  0  0  0  0  0  0  0  0
   10.4093    1.8041   -0.5423 C   0  0  0  0  0  0  0  0  0  0  0  0
   10.6235    0.4538   -0.2836 C   0  0  0  0  0  0  0  0  0  0  0  0
    9.7303   -0.5816   -0.1171 C   0  0  0  0  0  0  0  0  0  0  0  0
    8.3465   -0.7053   -0.1360 C   0  0  0  0  0  0  0  0  0  0  0  0
    7.6947   -1.9023    0.0677 C   0  0  0  0  0  0  0  0  0  0  0  0
    6.2415   -2.0336    0.0522 C   0  0  0  0  0  0  0  0  0  0  0  0
    5.3850   -1.0595   -0.1452 C   0  0  0  0  0  0  0  0  0  0  0  0
    3.9413   -1.2646   -0.1472 C   0  0  0  0  0  0  0  0  0  0  0  0
    3.4836   -2.4238    0.0461 O   0  0  0  0  0  0  0  0  0  0  0  0
    3.0662   -0.1364   -0.3700 C   0  0  0  0  0  0  0  0  0  0  0  0
    3.4649    1.1598   -0.5905 C   0  0  0  0  0  0  0  0  0  0  0  0
    2.5260    2.1832   -0.7934 C   0  0  0  0  0  0  0  0  0  0  0  0
    1.1689    1.9334   -0.7803 C   0  0  0  0  0  0  0  0  0  0  0  0
    0.7654    0.6370   -0.5600 C   0  0  0  0  0  0  0  0  0  0  0  0
    1.6909   -0.3553   -0.3630 C   0  0  0  0  0  0  0  0  0  0  0  0
   -0.6246    0.6724   -0.5974 C   0  0  0  0  0  0  0  0  0  0  0  0
   -1.5881   -0.2935   -0.4476 C   0  0  0  0  0  0  0  0  0  0  0  0
   -2.9719   -0.0539   -0.5203 C   0  0  0  0  0  0  0  0  0  0  0  0
   -3.8715   -1.1385   -0.3816 C   0  0  0  0  0  0  0  0  0  0  0  0
   -3.2574   -2.3232   -0.3461 O   0  0  0  0  0  0  0  0  0  0  0  0
   -5.2758   -1.3008   -0.2670 C   0  0  0  0  0  0  0  0  0  0  0  0
   -6.2629   -0.4541   -0.2230 C   0  0  0  0  0  0  0  0  0  0  0  0
   -7.6927   -0.8287   -0.1013 C   0  0  0  0  0  0  0  0  0  0  0  0
   -8.1143   -2.1213   -0.0309 C   0  0  0  0  0  0  0  0  0  0  0  0
   -9.4666   -2.4600    0.0870 C   0  0  0  0  0  0  0  0  0  0  0  0
  -10.3835   -1.4344    0.1315 C   0  0  0  0  0  0  0  0  0  0  0  0
   -9.9903   -0.1158    0.0626 C   0  0  0  0  0  0  0  0  0  0  0  0
   -8.6339    0.1725   -0.0543 C   0  0  0  0  0  0  0  0  0  0  0  0
  -11.1057    0.7047    0.1300 C   0  0  0  0  0  0  0  0  0  0  0  0
  -11.2292    2.0780    0.1014 C   0  0  0  0  0  0  0  0  0  0  0  0
  -12.5112    2.6326    0.1898 C   0  0  0  0  0  0  0  0  0  0  0  0
  -13.5973    1.7863    0.3016 C   0  0  0  0  0  0  0  0  0  0  0  0
  -13.4595    0.4215    0.3286 C   0  0  0  0  0  0  0  0  0  0  0  0
  -12.1867   -0.1391    0.2412 C   0  0  0  0  0  0  0  0  0  0  0  0
  -11.7449   -1.4072    0.2409 N   0  0  0  0  0  0  0  0  0  0  0  0
  -12.5527   -2.5969    0.3397 C   0  0  0  0  0  0  0  0  0  0  0  0
  -12.7016   -2.9540    1.8112 C   0  0  0  0  0  0  0  0  0  0  0  0
   -3.3259    1.2448   -0.7585 C   0  0  0  0  0  0  0  0  0  0  0  0
   -2.3750    2.2693   -0.9185 C   0  0  0  0  0  0  0  0  0  0  0  0
   -1.0420    1.9651   -0.8352 C   0  0  0  0  0  0  0  0  0  0  0  0
    0.0970    2.6989   -0.9396 N   0  0  0  0  0  0  0  0  0  0  0  0
    0.1081    4.1189   -1.1897 C   0  0  0  0  0  0  0  0  0  0  0  0
    0.0834    4.9306    0.0784 C   0  0  0  0  0  0  0  0  0  0  0  0
    8.4930   -3.0114    0.2990 C   0  0  0  0  0  0  0  0  0  0  0  0
    9.8626   -2.9020    0.3204 C   0  0  0  0  0  0  0  0  0  0  0  0
   10.5061   -1.7023    0.1160 C   0  0  0  0  0  0  0  0  0  0  0  0
   14.0543   -1.5094    1.9742 H   0  0  0  0  0  0  0  0  0  0  0  0
   12.3729   -2.0587    2.3602 H   0  0  0  0  0  0  0  0  0  0  0  0
   13.6507   -3.2817    2.0141 H   0  0  0  0  0  0  0  0  0  0  0  0
   12.6613   -3.2812   -0.0113 H   0  0  0  0  0  0  0  0  0  0  0  0
   13.8189   -1.9506   -0.2913 H   0  0  0  0  0  0  0  0  0  0  0  0
   14.0150    0.5055   -0.1900 H   0  0  0  0  0  0  0  0  0  0  0  0
   13.6388    2.8926   -0.6468 H   0  0  0  0  0  0  0  0  0  0  0  0
   11.3419    3.6927   -0.8666 H   0  0  0  0  0  0  0  0  0  0  0  0
    9.3880    2.1651   -0.6408 H   0  0  0  0  0  0  0  0  0  0  0  0
    7.7784    0.2097   -0.3246 H   0  0  0  0  0  0  0  0  0  0  0  0
    5.8035   -3.0191    0.2167 H   0  0  0  0  0  0  0  0  0  0  0  0
    5.8093   -0.0812   -0.3090 H   0  0  0  0  0  0  0  0  0  0  0  0
    4.5219    1.3866   -0.6066 H   0  0  0  0  0  0  0  0  0  0  0  0
    2.8821    3.1898   -0.9638 H   0  0  0  0  0  0  0  0  0  0  0  0
    1.3592   -1.3652   -0.1918 H   0  0  0  0  0  0  0  0  0  0  0  0
   -1.1999   -1.3025   -0.2589 H   0  0  0  0  0  0  0  0  0  0  0  0
   -5.6389   -2.3741   -0.1996 H   0  0  0  0  0  0  0  0  0  0  0  0
   -6.0025    0.5872   -0.2624 H   0  0  0  0  0  0  0  0  0  0  0  0
   -7.4557   -2.9725   -0.0598 H   0  0  0  0  0  0  0  0  0  0  0  0
   -9.8100   -3.4810    0.1434 H   0  0  0  0  0  0  0  0  0  0  0  0
   -8.3368    1.2138   -0.1075 H   0  0  0  0  0  0  0  0  0  0  0  0
  -10.3652    2.6996    0.0137 H   0  0  0  0  0  0  0  0  0  0  0  0
  -12.6249    3.7048    0.1689 H   0  0  0  0  0  0  0  0  0  0  0  0
  -14.5864    2.2123    0.3698 H   0  0  0  0  0  0  0  0  0  0  0  0
  -14.2755   -0.2625    0.4142 H   0  0  0  0  0  0  0  0  0  0  0  0
  -12.0252   -3.4359   -0.1581 H   0  0  0  0  0  0  0  0  0  0  0  0
  -13.5550   -2.4161   -0.1266 H   0  0  0  0  0  0  0  0  0  0  0  0
  -12.1984   -3.9214    2.0552 H   0  0  0  0  0  0  0  0  0  0  0  0
  -12.2272   -2.1902    2.4673 H   0  0  0  0  0  0  0  0  0  0  0  0
  -13.7759   -2.9959    2.1128 H   0  0  0  0  0  0  0  0  0  0  0  0
   -4.3423    1.5711   -0.8583 H   0  0  0  0  0  0  0  0  0  0  0  0
   -2.7034    3.2741   -1.1035 H   0  0  0  0  0  0  0  0  0  0  0  0
   -0.7162    4.4209   -1.8947 H   0  0  0  0  0  0  0  0  0  0  0  0
    1.0483    4.3590   -1.7259 H   0  0  0  0  0  0  0  0  0  0  0  0
   -0.1755    4.3545    0.9754 H   0  0  0  0  0  0  0  0  0  0  0  0
    1.0904    5.3950    0.2843 H   0  0  0  0  0  0  0  0  0  0  0  0
   -0.6006    5.7982   -0.1027 H   0  0  0  0  0  0  0  0  0  0  0  0
    7.9727   -3.9610    0.4602 H   0  0  0  0  0  0  0  0  0  0  0  0
   10.4686   -3.7962    0.5059 H   0  0  0  0  0  0  0  0  0  0  0  0
  1  2  1  0
  2  3  1  0
  3  4  1  0
  4  5  2  0
  5  6  1  0
  6  7  2  0
  7  8  1  0
  8  9  2  0
  9 10  1  0
 10 11  2  0
 11 12  1  0
 12 13  1  0
 13 14  2  0
 14 15  1  0
 15 16  2  0
 15 17  1  0
 17 18  2  0
 18 19  1  0
 19 20  2  0
 20 21  1  0
 21 22  2  0
 21 23  1  0
 23 24  2  0
 24 25  1  0
 25 26  1  0
 26 27  2  0
 26 28  1  0
 28 29  2  0
 29 30  1  0
 30 31  2  0
 31 32  1  0
 32 33  2  0
 33 34  1  0
 34 35  2  0
 34 36  1  0
 36 37  2  0
 37 38  1  0
 38 39  2  0
 39 40  1  0
 40 41  2  0
 41 42  1  0
 42 43  1  0
 43 44  1  0
 25 45  2  0
 45 46  1  0
 46 47  2  0
 47 48  1  0
 48 49  1  0
 49 50  1  0
 12 51  2  0
 51 52  1  0
 52 53  2  0
 53  3  1  0
  9  4  1  0
 53 10  1  0
 22 17  1  0
 47 23  1  0
 48 20  1  0
 35 30  1  0
 41 36  1  0
 42 33  1  0
  1 54  1  0
  1 55  1  0
  1 56  1  0
  2 57  1  0
  2 58  1  0
  5 59  1  0
  6 60  1  0
  7 61  1  0
  8 62  1  0
 11 63  1  0
 13 64  1  0
 14 65  1  0
 18 66  1  0
 19 67  1  0
 22 68  1  0
 24 69  1  0
 28 70  1  0
 29 71  1  0
 31 72  1  0
 32 73  1  0
 35 74  1  0
 37 75  1  0
 38 76  1  0
 39 77  1  0
 40 78  1  0
 43 79  1  0
 43 80  1  0
 44 81  1  0
 44 82  1  0
 44 83  1  0
 45 84  1  0
 46 85  1  0
 49 86  1  0
 49 87  1  0
 50 88  1  0
 50 89  1  0
 50 90  1  0
 51 91  1  0
 52 92  1  0
M  END
