
     RDKit          3D

 42 46  0  0  0  0  0  0  0  0999 V2000
    6.4825   -0.3202   -0.9369 N   0  0  0  0  0  0  0  0  0  0  0  0
    5.2075   -0.2759   -0.2991 C   0  0  0  0  0  0  0  0  0  0  0  0
    5.1497   -0.3190    1.0884 C   0  0  0  0  0  0  0  0  0  0  0  0
    3.9089   -0.2751    1.6862 C   0  0  0  0  0  0  0  0  0  0  0  0
    2.7734   -0.1909    0.9071 C   0  0  0  0  0  0  0  0  0  0  0  0
    2.8087   -0.1473   -0.4594 C   0  0  0  0  0  0  0  0  0  0  0  0
    4.0589   -0.1917   -1.0562 C   0  0  0  0  0  0  0  0  0  0  0  0
    1.4508   -0.0602   -0.9814 C   0  0  0  0  0  0  0  0  0  0  0  0
    1.1189   -0.0030   -2.1921 O   0  0  0  0  0  0  0  0  0  0  0  0
    0.5286   -0.0497    0.1283 N   0  0  0  0  0  0  0  0  0  0  0  0
   -0.9163    0.0255    0.0270 C   0  0  0  0  0  0  0  0  0  0  0  0
   -1.5230    0.0227    1.4131 C   0  0  0  0  0  0  0  0  0  0  0  0
   -3.0377    0.1624    1.3134 C   0  0  1  0  0  0  0  0  0  0  0  0
   -3.3966    1.4520    0.6463 C   0  0  0  0  0  0  0  0  0  0  0  0
   -2.8055    1.4372   -0.7446 C   0  0  1  0  0  0  0  0  0  0  0  0
   -1.3137    1.3055   -0.7001 C   0  0  0  0  0  0  0  0  0  0  0  0
   -3.4005    0.2360   -1.4588 C   0  0  0  0  0  0  0  0  0  0  0  0
   -2.9650   -1.0428   -0.7916 C   0  0  1  0  0  0  0  0  0  0  0  0
   -1.4749   -1.1192   -0.7911 C   0  0  0  0  0  0  0  0  0  0  0  0
   -3.5516   -1.0568    0.6036 C   0  0  0  0  0  0  0  0  0  0  0  0
    1.3491   -0.1303    1.2844 C   0  0  0  0  0  0  0  0  0  0  0  0
    0.9393   -0.1492    2.4829 O   0  0  0  0  0  0  0  0  0  0  0  0
    7.0761    0.5336   -0.8686 H   0  0  0  0  0  0  0  0  0  0  0  0
    6.7391   -1.1918   -1.4256 H   0  0  0  0  0  0  0  0  0  0  0  0
    6.0496   -0.3842    1.6617 H   0  0  0  0  0  0  0  0  0  0  0  0
    3.8765   -0.3092    2.7642 H   0  0  0  0  0  0  0  0  0  0  0  0
    4.0700   -0.1564   -2.1372 H   0  0  0  0  0  0  0  0  0  0  0  0
   -1.3333   -0.9764    1.8550 H   0  0  0  0  0  0  0  0  0  0  0  0
   -1.1009    0.8548    2.0141 H   0  0  0  0  0  0  0  0  0  0  0  0
   -3.4016    0.2029    2.3765 H   0  0  0  0  0  0  0  0  0  0  0  0
   -2.9251    2.2712    1.2053 H   0  0  0  0  0  0  0  0  0  0  0  0
   -4.4820    1.5730    0.5964 H   0  0  0  0  0  0  0  0  0  0  0  0
   -3.0576    2.3604   -1.2777 H   0  0  0  0  0  0  0  0  0  0  0  0
   -0.8237    2.1892   -0.2838 H   0  0  0  0  0  0  0  0  0  0  0  0
   -0.9769    1.1449   -1.7664 H   0  0  0  0  0  0  0  0  0  0  0  0
   -4.5010    0.3191   -1.3472 H   0  0  0  0  0  0  0  0  0  0  0  0
   -3.1627    0.2363   -2.5364 H   0  0  0  0  0  0  0  0  0  0  0  0
   -3.4352   -1.8852   -1.3388 H   0  0  0  0  0  0  0  0  0  0  0  0
   -1.1262   -0.9657   -1.8332 H   0  0  0  0  0  0  0  0  0  0  0  0
   -1.0893   -2.1000   -0.4564 H   0  0  0  0  0  0  0  0  0  0  0  0
   -4.6471   -1.0842    0.4992 H   0  0  0  0  0  0  0  0  0  0  0  0
   -3.1402   -1.9424    1.1298 H   0  0  0  0  0  0  0  0  0  0  0  0
  1  2  1  0
  2  3  1  0
  3  4  2  0
  4  5  1  0
  5  6  2  0
  6  7  1  0
  6  8  1  0
  8  9  2  0
  8 10  1  0
 10 11  1  0
 11 12  1  0
 12 13  1  0
 13 14  1  0
 14 15  1  0
 15 16  1  0
 15 17  1  0
 17 18  1  0
 18 19  1  0
 18 20  1  0
 10 21  1  0
 21 22  2  0
  7  2  2  0
 16 11  1  0
 21  5  1  0
 19 11  1  0
 20 13  1  0
  1 23  1  0
  1 24  1  0
  3 25  1  0
  4 26  1  0
  7 27  1  0
 12 28  1  0
 12 29  1  0
 13 30  1  1
 14 31  1  0
 14 32  1  0
 15 33  1  6
 16 34  1  0
 16 35  1  0
 17 36  1  0
 17 37  1  0
 18 38  1  6
 19 39  1  0
 19 40  1  0
 20 41  1  0
 20 42  1  0
M  END
