
     RDKit          3D

 34 36  0  0  0  0  0  0  0  0999 V2000
    6.0595    1.0879   -1.4850 C   0  0  0  0  0  0  0  0  0  0  0  0
    5.6983   -0.1051   -0.8415 O   0  0  0  0  0  0  0  0  0  0  0  0
    4.3714   -0.3603   -0.5395 C   0  0  0  0  0  0  0  0  0  0  0  0
    4.0807   -1.5449    0.0905 C   0  0  0  0  0  0  0  0  0  0  0  0
    2.7700   -1.8044    0.3925 C   0  0  0  0  0  0  0  0  0  0  0  0
    1.7256   -0.9218    0.0889 C   0  0  0  0  0  0  0  0  0  0  0  0
    0.3438   -1.2678    0.4435 C   0  0  0  0  0  0  0  0  0  0  0  0
    0.1982   -2.3557    1.0062 O   0  0  0  0  0  0  0  0  0  0  0  0
   -0.7308   -0.3792    0.1407 C   0  0  0  0  0  0  0  0  0  0  0  0
   -1.9926   -0.6105    0.4222 C   0  0  0  0  0  0  0  0  0  0  0  0
   -2.5929   -1.7571    1.0741 C   0  0  0  0  0  0  0  0  0  0  0  0
   -1.9655   -2.7371    1.4814 O   0  0  0  0  0  0  0  0  0  0  0  0
   -3.9988   -1.4989    1.1299 N   0  0  0  0  0  0  0  0  0  0  0  0
   -4.3033   -0.2396    0.5406 C   0  0  0  0  0  0  0  0  0  0  0  0
   -5.5121    0.4442    0.3578 C   0  0  0  0  0  0  0  0  0  0  0  0
   -5.4526    1.6568   -0.2560 C   0  0  0  0  0  0  0  0  0  0  0  0
   -4.2803    2.2323   -0.6977 C   0  0  0  0  0  0  0  0  0  0  0  0
   -3.1202    1.5300   -0.4993 C   0  0  0  0  0  0  0  0  0  0  0  0
   -3.1175    0.3015    0.1143 C   0  0  0  0  0  0  0  0  0  0  0  0
    2.0842    0.2401   -0.5388 C   0  0  0  0  0  0  0  0  0  0  0  0
    3.3948    0.5412   -0.8615 C   0  0  0  0  0  0  0  0  0  0  0  0
    5.5470    1.9414   -0.9636 H   0  0  0  0  0  0  0  0  0  0  0  0
    5.7405    1.1252   -2.5533 H   0  0  0  0  0  0  0  0  0  0  0  0
    7.1523    1.3034   -1.3721 H   0  0  0  0  0  0  0  0  0  0  0  0
    4.8849   -2.2445    0.3343 H   0  0  0  0  0  0  0  0  0  0  0  0
    2.5371   -2.7528    0.8969 H   0  0  0  0  0  0  0  0  0  0  0  0
   -0.5092    0.5784   -0.3670 H   0  0  0  0  0  0  0  0  0  0  0  0
   -4.6730   -2.1656    1.5517 H   0  0  0  0  0  0  0  0  0  0  0  0
   -6.4141   -0.0303    0.7135 H   0  0  0  0  0  0  0  0  0  0  0  0
   -6.3813    2.1958   -0.4033 H   0  0  0  0  0  0  0  0  0  0  0  0
   -4.2874    3.2180   -1.1894 H   0  0  0  0  0  0  0  0  0  0  0  0
   -2.1820    1.9508   -0.8329 H   0  0  0  0  0  0  0  0  0  0  0  0
    1.3262    0.9524   -0.7949 H   0  0  0  0  0  0  0  0  0  0  0  0
    3.5990    1.4763   -1.3556 H   0  0  0  0  0  0  0  0  0  0  0  0
  1  2  1  0
  2  3  1  0
  3  4  2  0
  4  5  1  0
  5  6  2  0
  6  7  1  0
  7  8  2  0
  7  9  1  0
  9 10  2  0
 10 11  1  0
 11 12  2  0
 11 13  1  0
 13 14  1  0
 14 15  2  0
 15 16  1  0
 16 17  2  0
 17 18  1  0
 18 19  2  0
  6 20  1  0
 20 21  2  0
 21  3  1  0
 19 10  1  0
 19 14  1  0
  1 22  1  0
  1 23  1  0
  1 24  1  0
  4 25  1  0
  5 26  1  0
  9 27  1  0
 13 28  1  0
 15 29  1  0
 16 30  1  0
 17 31  1  0
 18 32  1  0
 20 33  1  0
 21 34  1  0
M  END
