
     RDKit          3D

 37 40  0  0  0  0  0  0  0  0999 V2000
   -1.4505   -2.3894    1.1821 C   0  0  0  0  0  0  0  0  0  0  0  0
   -1.4587   -1.3248    0.0886 C   0  0  0  0  0  0  0  0  0  0  0  0
   -1.7114   -1.9872   -1.2693 C   0  0  0  0  0  0  0  0  0  0  0  0
   -2.5131   -0.3942    0.2953 N   0  0  0  0  0  0  0  0  0  0  0  0
   -2.3356    1.0042    0.3840 C   0  0  0  0  0  0  0  0  0  0  0  0
   -3.4425    1.8437    0.5845 C   0  0  0  0  0  0  0  0  0  0  0  0
   -3.2781    3.2013    0.6717 C   0  0  0  0  0  0  0  0  0  0  0  0
   -2.0088    3.7045    0.5574 C   0  0  0  0  0  0  0  0  0  0  0  0
   -0.8902    2.8920    0.3575 C   0  0  0  0  0  0  0  0  0  0  0  0
   -1.0668    1.5357    0.2720 C   0  0  0  0  0  0  0  0  0  0  0  0
    0.0903    0.6502    0.0616 C   0  0  0  0  0  0  0  0  0  0  0  0
    1.3381    1.1507   -0.0479 N   0  0  0  0  0  0  0  0  0  0  0  0
    2.4271    0.3676   -0.2397 C   0  0  0  0  0  0  0  0  0  0  0  0
    3.6974    0.8993   -0.3494 C   0  0  0  0  0  0  0  0  0  0  0  0
    4.7685    0.0477   -0.5444 C   0  0  0  0  0  0  0  0  0  0  0  0
    4.5729   -1.3128   -0.6282 C   0  0  0  0  0  0  0  0  0  0  0  0
    3.2980   -1.8339   -0.5171 C   0  0  0  0  0  0  0  0  0  0  0  0
    2.2152   -0.9890   -0.3213 C   0  0  0  0  0  0  0  0  0  0  0  0
    0.9695   -1.5332   -0.2155 C   0  0  0  0  0  0  0  0  0  0  0  0
    0.7835   -2.7924   -0.2925 O   0  0  0  0  0  0  0  0  0  0  0  0
   -0.1391   -0.6919   -0.0169 C   0  0  0  0  0  0  0  0  0  0  0  0
   -1.3799   -3.3769    0.6867 H   0  0  0  0  0  0  0  0  0  0  0  0
   -2.3963   -2.3542    1.7597 H   0  0  0  0  0  0  0  0  0  0  0  0
   -0.6141   -2.2001    1.8862 H   0  0  0  0  0  0  0  0  0  0  0  0
   -0.7855   -2.0778   -1.8694 H   0  0  0  0  0  0  0  0  0  0  0  0
   -2.1033   -3.0286   -1.1318 H   0  0  0  0  0  0  0  0  0  0  0  0
   -2.4503   -1.4178   -1.8669 H   0  0  0  0  0  0  0  0  0  0  0  0
   -3.5372   -0.7524    0.3957 H   0  0  0  0  0  0  0  0  0  0  0  0
   -4.4353    1.4330    0.6726 H   0  0  0  0  0  0  0  0  0  0  0  0
   -4.1287    3.8841    0.8288 H   0  0  0  0  0  0  0  0  0  0  0  0
   -1.8042    4.7647    0.6162 H   0  0  0  0  0  0  0  0  0  0  0  0
    0.0860    3.3157    0.2725 H   0  0  0  0  0  0  0  0  0  0  0  0
    1.5402    2.1538    0.0070 H   0  0  0  0  0  0  0  0  0  0  0  0
    3.8502    1.9773   -0.2827 H   0  0  0  0  0  0  0  0  0  0  0  0
    5.7492    0.4923   -0.6264 H   0  0  0  0  0  0  0  0  0  0  0  0
    5.4169   -1.9683   -0.7806 H   0  0  0  0  0  0  0  0  0  0  0  0
    3.1266   -2.8929   -0.5801 H   0  0  0  0  0  0  0  0  0  0  0  0
  1  2  1  0
  2  3  1  0
  2  4  1  0
  4  5  1  0
  5  6  2  0
  6  7  1  0
  7  8  2  0
  8  9  1  0
  9 10  2  0
 10 11  1  0
 11 12  1  0
 12 13  1  0
 13 14  2  0
 14 15  1  0
 15 16  2  0
 16 17  1  0
 17 18  2  0
 18 19  1  0
 19 20  2  0
 19 21  1  0
 21  2  1  0
 10  5  1  0
 21 11  2  0
 18 13  1  0
  1 22  1  0
  1 23  1  0
  1 24  1  0
  3 25  1  0
  3 26  1  0
  3 27  1  0
  4 28  1  0
  6 29  1  0
  7 30  1  0
  8 31  1  0
  9 32  1  0
 12 33  1  0
 14 34  1  0
 15 35  1  0
 16 36  1  0
 17 37  1  0
M  END
