
     RDKit          3D

 34 35  0  0  0  0  0  0  0  0999 V2000
   -2.8892   -3.5318   -0.2432 C   0  0  0  0  0  0  0  0  0  0  0  0
   -3.5425   -2.3081   -0.1259 O   0  0  0  0  0  0  0  0  0  0  0  0
   -2.9168   -1.0769   -0.0711 C   0  0  0  0  0  0  0  0  0  0  0  0
   -1.5262   -0.9374   -0.1298 C   0  0  0  0  0  0  0  0  0  0  0  0
   -0.9327    0.2849   -0.0739 C   0  0  0  0  0  0  0  0  0  0  0  0
    0.4882    0.4634   -0.1314 C   0  0  0  0  0  0  0  0  0  0  0  0
    1.3436   -0.5153   -0.2414 C   0  0  0  0  0  0  0  0  0  0  0  0
    2.7917   -0.3117   -0.2985 C   0  0  0  0  0  0  0  0  0  0  0  0
    3.4147    0.9029   -0.2446 C   0  0  0  0  0  0  0  0  0  0  0  0
    4.8081    1.0069   -0.3059 C   0  0  0  0  0  0  0  0  0  0  0  0
    5.5482   -0.1475   -0.4226 C   0  0  0  0  0  0  0  0  0  0  0  0
    4.9723   -1.3941   -0.4810 C   0  0  0  0  0  0  0  0  0  0  0  0
    3.5987   -1.4432   -0.4168 C   0  0  0  0  0  0  0  0  0  0  0  0
   -1.7566    1.4123    0.0450 C   0  0  0  0  0  0  0  0  0  0  0  0
   -3.1210    1.3238    0.1059 C   0  0  0  0  0  0  0  0  0  0  0  0
   -3.9114    2.4702    0.2245 O   0  0  0  0  0  0  0  0  0  0  0  0
   -3.3156    3.7525    0.2844 C   0  0  0  0  0  0  0  0  0  0  0  0
   -3.6898    0.0591    0.0459 C   0  0  0  0  0  0  0  0  0  0  0  0
   -1.9435   -3.5099   -0.7886 H   0  0  0  0  0  0  0  0  0  0  0  0
   -3.5783   -4.2161   -0.8195 H   0  0  0  0  0  0  0  0  0  0  0  0
   -2.7988   -4.0322    0.7632 H   0  0  0  0  0  0  0  0  0  0  0  0
   -0.9401   -1.8264   -0.2204 H   0  0  0  0  0  0  0  0  0  0  0  0
    0.8820    1.4824   -0.0799 H   0  0  0  0  0  0  0  0  0  0  0  0
    0.9770   -1.5261   -0.2937 H   0  0  0  0  0  0  0  0  0  0  0  0
    2.8361    1.8043   -0.1535 H   0  0  0  0  0  0  0  0  0  0  0  0
    5.2688    2.0011   -0.2594 H   0  0  0  0  0  0  0  0  0  0  0  0
    6.6187   -0.0449   -0.4681 H   0  0  0  0  0  0  0  0  0  0  0  0
    5.5576   -2.2819   -0.5715 H   0  0  0  0  0  0  0  0  0  0  0  0
    3.1613   -2.4478   -0.4652 H   0  0  0  0  0  0  0  0  0  0  0  0
   -1.3078    2.3893    0.0908 H   0  0  0  0  0  0  0  0  0  0  0  0
   -4.0380    4.5320    0.5178 H   0  0  0  0  0  0  0  0  0  0  0  0
   -2.4938    3.7435    1.0489 H   0  0  0  0  0  0  0  0  0  0  0  0
   -2.7958    3.9049   -0.6897 H   0  0  0  0  0  0  0  0  0  0  0  0
   -4.7690    0.0176    0.0961 H   0  0  0  0  0  0  0  0  0  0  0  0
  1  2  1  0
  2  3  1  0
  3  4  2  0
  4  5  1  0
  5  6  1  0
  6  7  2  0
  7  8  1  0
  8  9  2  0
  9 10  1  0
 10 11  2  0
 11 12  1  0
 12 13  2  0
  5 14  2  0
 14 15  1  0
 15 16  1  0
 16 17  1  0
 15 18  2  0
 18  3  1  0
 13  8  1  0
  1 19  1  0
  1 20  1  0
  1 21  1  0
  4 22  1  0
  6 23  1  0
  7 24  1  0
  9 25  1  0
 10 26  1  0
 11 27  1  0
 12 28  1  0
 13 29  1  0
 14 30  1  0
 17 31  1  0
 17 32  1  0
 17 33  1  0
 18 34  1  0
M  END
