
     RDKit          3D

 99108  0  0  0  0  0  0  0  0999 V2000
    4.9216    4.8327   -2.3783 C   0  0  0  0  0  0  0  0  0  0  0  0
    4.4604    4.4145   -1.0076 C   0  0  0  0  0  0  0  0  0  0  0  0
    3.1140    3.7278   -1.1394 C   0  0  0  0  0  0  0  0  0  0  0  0
    2.6660    3.3228    0.2271 C   0  0  0  0  0  0  0  0  0  0  0  0
    1.3808    2.6700    0.2855 N   0  0  0  0  0  0  0  0  0  0  0  0
    0.2577    3.4766    0.3733 C   0  0  0  0  0  0  0  0  0  0  0  0
    0.1670    4.8610    0.3031 C   0  0  0  0  0  0  0  0  0  0  0  0
   -1.0631    5.5330    0.3928 C   0  0  0  0  0  0  0  0  0  0  0  0
   -2.1661    4.7782    0.5506 C   0  0  0  0  0  0  0  0  0  0  0  0
   -3.4975    5.4272    0.6508 C   0  0  0  0  0  0  0  0  0  0  0  0
   -4.7224    4.8542    0.8083 C   0  0  0  0  0  0  0  0  0  0  0  0
   -5.7881    5.6617    0.8709 C   0  0  0  0  0  0  0  0  0  0  0  0
   -5.5580    7.0090    0.7707 C   0  0  0  0  0  0  0  0  0  0  0  0
   -3.8652    7.0949    0.5932 S   0  0  0  0  0  0  0  0  0  0  0  0
   -2.0614    3.4002    0.6183 C   0  0  0  0  0  0  0  0  0  0  0  0
   -0.8635    2.7207    0.5334 C   0  0  0  0  0  0  0  0  0  0  0  0
   -0.4590    1.4018    0.5495 C   0  0  0  0  0  0  0  0  0  0  0  0
    0.9437    1.4288    0.3856 C   0  0  0  0  0  0  0  0  0  0  0  0
    1.6361    0.2284    0.3980 C   0  0  0  0  0  0  0  0  0  0  0  0
    2.9610   -0.0526    0.2378 C   0  0  0  0  0  0  0  0  0  0  0  0
    4.1084    0.6392   -0.0439 C   0  0  0  0  0  0  0  0  0  0  0  0
    5.3468   -0.0178   -0.2077 C   0  0  0  0  0  0  0  0  0  0  0  0
    5.4600   -1.3639   -0.0967 C   0  0  0  0  0  0  0  0  0  0  0  0
    6.7301   -2.0805   -0.2635 C   0  0  0  0  0  0  0  0  0  0  0  0
    7.9550   -1.5371   -0.5434 C   0  0  0  0  0  0  0  0  0  0  0  0
    8.9886   -2.3765   -0.6560 C   0  0  0  0  0  0  0  0  0  0  0  0
    8.7445   -3.7112   -0.4833 C   0  0  0  0  0  0  0  0  0  0  0  0
    7.0683   -3.7513   -0.1673 S   0  0  0  0  0  0  0  0  0  0  0  0
    4.2934   -2.0849    0.1886 C   0  0  0  0  0  0  0  0  0  0  0  0
    3.0929   -1.4108    0.3447 C   0  0  0  0  0  0  0  0  0  0  0  0
    1.8510   -1.9635    0.5667 N   0  0  0  0  0  0  0  0  0  0  0  0
    1.7518   -3.3680    0.8365 C   0  0  0  0  0  0  0  0  0  0  0  0
    1.6555   -4.1516   -0.4379 C   0  0  0  0  0  0  0  0  0  0  0  0
    1.5748   -5.6419   -0.2021 C   0  0  0  0  0  0  0  0  0  0  0  0
    1.4788   -6.3659   -1.5272 C   0  0  0  0  0  0  0  0  0  0  0  0
    0.9260   -0.9882    0.5965 C   0  0  0  0  0  0  0  0  0  0  0  0
   -0.4516   -0.9827    0.7530 C   0  0  0  0  0  0  0  0  0  0  0  0
   -1.3544   -1.9945    0.9219 C   0  0  0  0  0  0  0  0  0  0  0  0
   -1.3355   -3.3682    0.9870 C   0  0  0  0  0  0  0  0  0  0  0  0
   -2.5078   -4.1022    1.1320 C   0  0  0  0  0  0  0  0  0  0  0  0
   -3.7235   -3.5087    1.2154 C   0  0  0  0  0  0  0  0  0  0  0  0
   -4.9563   -4.2621    1.3671 C   0  0  0  0  0  0  0  0  0  0  0  0
   -6.2360   -3.7917    1.4580 C   0  0  0  0  0  0  0  0  0  0  0  0
   -7.2206   -4.6862    1.5932 C   0  0  0  0  0  0  0  0  0  0  0  0
   -6.8806   -6.0087    1.6311 C   0  0  0  0  0  0  0  0  0  0  0  0
   -5.1848   -5.9699    1.4763 S   0  0  0  0  0  0  0  0  0  0  0  0
   -3.7568   -2.1355    1.1500 C   0  0  0  0  0  0  0  0  0  0  0  0
   -2.5800   -1.3864    1.0039 C   0  0  0  0  0  0  0  0  0  0  0  0
   -2.4620   -0.0227    0.8849 N   0  0  0  0  0  0  0  0  0  0  0  0
   -3.6533    0.8009    0.9920 C   0  0  0  0  0  0  0  0  0  0  0  0
   -4.4442    0.8579   -0.2618 C   0  0  0  0  0  0  0  0  0  0  0  0
   -3.7282    1.3295   -1.4930 C   0  0  0  0  0  0  0  0  0  0  0  0
   -4.7143    1.2451   -2.7023 C   0  0  0  0  0  0  0  0  0  0  0  0
   -1.1589    0.2298    0.7287 C   0  0  0  0  0  0  0  0  0  0  0  0
    5.2446    3.9075   -2.9063 H   0  0  0  0  0  0  0  0  0  0  0  0
    5.7656    5.5498   -2.3249 H   0  0  0  0  0  0  0  0  0  0  0  0
    4.0390    5.2628   -2.8951 H   0  0  0  0  0  0  0  0  0  0  0  0
    4.3879    5.2946   -0.3114 H   0  0  0  0  0  0  0  0  0  0  0  0
    5.2006    3.7118   -0.5997 H   0  0  0  0  0  0  0  0  0  0  0  0
    2.3523    4.4663   -1.5326 H   0  0  0  0  0  0  0  0  0  0  0  0
    3.1556    2.9458   -1.8965 H   0  0  0  0  0  0  0  0  0  0  0  0
    3.4023    3.0058    0.9715 H   0  0  0  0  0  0  0  0  0  0  0  0
    2.5257    4.3998    0.7119 H   0  0  0  0  0  0  0  0  0  0  0  0
    1.0495    5.4751    0.1699 H   0  0  0  0  0  0  0  0  0  0  0  0
   -1.1043    6.6179    0.3357 H   0  0  0  0  0  0  0  0  0  0  0  0
   -4.8067    3.7497    0.8798 H   0  0  0  0  0  0  0  0  0  0  0  0
   -6.8366    5.3058    0.9977 H   0  0  0  0  0  0  0  0  0  0  0  0
   -6.3066    7.8213    0.8006 H   0  0  0  0  0  0  0  0  0  0  0  0
   -2.9802    2.9294    0.7183 H   0  0  0  0  0  0  0  0  0  0  0  0
    4.1397    1.6519   -0.1942 H   0  0  0  0  0  0  0  0  0  0  0  0
    6.2285    0.6074   -0.4312 H   0  0  0  0  0  0  0  0  0  0  0  0
    8.0433   -0.4330   -0.6649 H   0  0  0  0  0  0  0  0  0  0  0  0
   10.0248   -2.0398   -0.8812 H   0  0  0  0  0  0  0  0  0  0  0  0
    9.4780   -4.5419   -0.5409 H   0  0  0  0  0  0  0  0  0  0  0  0
    4.4158   -3.1553    0.2625 H   0  0  0  0  0  0  0  0  0  0  0  0
    1.1348   -3.7042    1.6300 H   0  0  0  0  0  0  0  0  0  0  0  0
    2.8307   -3.7043    1.2113 H   0  0  0  0  0  0  0  0  0  0  0  0
    0.7579   -3.8618   -1.0549 H   0  0  0  0  0  0  0  0  0  0  0  0
    2.5107   -3.9125   -1.1308 H   0  0  0  0  0  0  0  0  0  0  0  0
    2.5349   -5.9241    0.3056 H   0  0  0  0  0  0  0  0  0  0  0  0
    0.7109   -5.8683    0.4123 H   0  0  0  0  0  0  0  0  0  0  0  0
    0.8485   -7.2570   -1.4820 H   0  0  0  0  0  0  0  0  0  0  0  0
    1.0253   -5.6429   -2.2636 H   0  0  0  0  0  0  0  0  0  0  0  0
    2.4712   -6.6124   -1.9324 H   0  0  0  0  0  0  0  0  0  0  0  0
   -0.4824   -3.9361    0.9116 H   0  0  0  0  0  0  0  0  0  0  0  0
   -2.4377   -5.2007    1.1801 H   0  0  0  0  0  0  0  0  0  0  0  0
   -6.4287   -2.6895    1.4180 H   0  0  0  0  0  0  0  0  0  0  0  0
   -8.2946   -4.4004    1.6750 H   0  0  0  0  0  0  0  0  0  0  0  0
   -7.5730   -6.8642    1.7379 H   0  0  0  0  0  0  0  0  0  0  0  0
   -4.7333   -1.6697    1.2172 H   0  0  0  0  0  0  0  0  0  0  0  0
   -4.4115    0.1405    1.6703 H   0  0  0  0  0  0  0  0  0  0  0  0
   -3.6355    1.6062    1.7088 H   0  0  0  0  0  0  0  0  0  0  0  0
   -4.9973   -0.0909   -0.4839 H   0  0  0  0  0  0  0  0  0  0  0  0
   -5.3105    1.5825   -0.0581 H   0  0  0  0  0  0  0  0  0  0  0  0
   -3.4857    2.4106   -1.4917 H   0  0  0  0  0  0  0  0  0  0  0  0
   -2.8647    0.7152   -1.7414 H   0  0  0  0  0  0  0  0  0  0  0  0
   -5.6678    1.6874   -2.4182 H   0  0  0  0  0  0  0  0  0  0  0  0
   -4.8310    0.1505   -2.8637 H   0  0  0  0  0  0  0  0  0  0  0  0
   -4.2312    1.6524   -3.5915 H   0  0  0  0  0  0  0  0  0  0  0  0
  1  2  1  0
  2  3  1  0
  3  4  1  0
  4  5  1  0
  5  6  1  0
  6  7  2  0
  7  8  1  0
  8  9  2  0
  9 10  1  0
 10 11  2  0
 11 12  1  0
 12 13  2  0
 13 14  1  0
  9 15  1  0
 15 16  2  0
 16 17  1  0
 17 18  2  0
 18 19  1  0
 19 20  1  0
 20 21  2  0
 21 22  1  0
 22 23  2  0
 23 24  1  0
 24 25  2  0
 25 26  1  0
 26 27  2  0
 27 28  1  0
 23 29  1  0
 29 30  2  0
 30 31  1  0
 31 32  1  0
 32 33  1  0
 33 34  1  0
 34 35  1  0
 31 36  1  0
 36 37  1  0
 37 38  1  0
 38 39  2  0
 39 40  1  0
 40 41  2  0
 41 42  1  0
 42 43  2  0
 43 44  1  0
 44 45  2  0
 45 46  1  0
 41 47  1  0
 47 48  2  0
 48 49  1  0
 49 50  1  0
 50 51  1  0
 51 52  1  0
 52 53  1  0
 49 54  1  0
 18  5  1  0
 36 19  2  0
 54 37  2  0
 16  6  1  0
 54 17  1  0
 14 10  1  0
 30 20  1  0
 48 38  1  0
 28 24  1  0
 46 42  1  0
  1 55  1  0
  1 56  1  0
  1 57  1  0
  2 58  1  0
  2 59  1  0
  3 60  1  0
  3 61  1  0
  4 62  1  0
  4 63  1  0
  7 64  1  0
  8 65  1  0
 11 66  1  0
 12 67  1  0
 13 68  1  0
 15 69  1  0
 21 70  1  0
 22 71  1  0
 25 72  1  0
 26 73  1  0
 27 74  1  0
 29 75  1  0
 32 76  1  0
 32 77  1  0
 33 78  1  0
 33 79  1  0
 34 80  1  0
 34 81  1  0
 35 82  1  0
 35 83  1  0
 35 84  1  0
 39 85  1  0
 40 86  1  0
 43 87  1  0
 44 88  1  0
 45 89  1  0
 47 90  1  0
 50 91  1  0
 50 92  1  0
 51 93  1  0
 51 94  1  0
 52 95  1  0
 52 96  1  0
 53 97  1  0
 53 98  1  0
 53 99  1  0
M  END
