
     RDKit          3D

 45 49  0  0  0  0  0  0  0  0999 V2000
    2.5594    4.2670   -0.6771 N   0  0  0  0  0  0  0  0  0  0  0  0
    1.7474    3.4282   -0.5058 C   0  0  0  0  0  0  0  0  0  0  0  0
    0.7360    2.4169   -0.2862 C   0  0  0  0  0  0  0  0  0  0  0  0
    0.8680    1.0782   -0.5870 C   0  0  0  0  0  0  0  0  0  0  0  0
    1.9916    0.3947   -1.1564 N   0  0  0  0  0  0  0  0  0  0  0  0
    2.3417    0.3313   -2.4295 N   0  0  0  0  0  0  0  0  0  0  0  0
    3.4527   -0.4037   -2.5679 N   0  0  0  0  0  0  0  0  0  0  0  0
    3.8567   -0.8430   -1.3681 C   0  0  0  0  0  0  0  0  0  0  0  0
    4.9162   -1.6226   -0.9435 C   0  0  0  0  0  0  0  0  0  0  0  0
    4.9975   -1.8674    0.4181 C   0  0  0  0  0  0  0  0  0  0  0  0
    6.3139   -2.8487    1.0251 Cl  0  0  0  0  0  0  0  0  0  0  0  0
    4.0711   -1.3605    1.3017 C   0  0  0  0  0  0  0  0  0  0  0  0
    3.0252   -0.5876    0.8625 C   0  0  0  0  0  0  0  0  0  0  0  0
    2.9065   -0.3198   -0.4821 C   0  0  0  0  0  0  0  0  0  0  0  0
   -0.3121    0.5219   -0.2230 N   0  0  0  0  0  0  0  0  0  0  0  0
   -0.6365   -0.8880   -0.3577 C   0  0  1  0  0  0  0  0  0  0  0  0
   -1.3377   -1.4724    0.8127 C   0  0  0  0  0  0  0  0  0  0  0  0
   -2.4109   -2.3299    0.1967 C   0  0  2  0  0  0  0  0  0  0  0  0
   -2.2637   -3.6720    0.5760 O   0  0  0  0  0  0  0  0  0  0  0  0
   -2.2313   -2.1447   -1.2638 C   0  0  1  0  0  0  0  0  0  0  0  0
   -3.5355   -1.9496   -2.0292 C   0  0  0  0  0  0  0  0  0  0  0  0
   -4.0961   -0.7598   -1.6226 O   0  0  0  0  0  0  0  0  0  0  0  0
   -1.3607   -1.1212   -1.5049 O   0  0  0  0  0  0  0  0  0  0  0  0
   -1.1461    1.4484    0.2793 C   0  0  0  0  0  0  0  0  0  0  0  0
   -2.3997    1.4454    0.7763 N   0  0  0  0  0  0  0  0  0  0  0  0
   -3.0405    2.5230    1.2311 C   0  0  0  0  0  0  0  0  0  0  0  0
   -2.4305    3.7428    1.2165 N   0  0  0  0  0  0  0  0  0  0  0  0
   -1.1779    3.7939    0.7288 C   0  0  0  0  0  0  0  0  0  0  0  0
   -0.5105    5.0426    0.6953 N   0  0  0  0  0  0  0  0  0  0  0  0
   -0.5029    2.6890    0.2552 C   0  0  0  0  0  0  0  0  0  0  0  0
    5.6357   -2.0120   -1.6575 H   0  0  0  0  0  0  0  0  0  0  0  0
    4.1316   -1.5527    2.3796 H   0  0  0  0  0  0  0  0  0  0  0  0
    2.2750   -0.1702    1.5312 H   0  0  0  0  0  0  0  0  0  0  0  0
    0.3326   -1.4593   -0.4792 H   0  0  0  0  0  0  0  0  0  0  0  0
   -1.7965   -0.7265    1.5001 H   0  0  0  0  0  0  0  0  0  0  0  0
   -0.6607   -2.1193    1.4438 H   0  0  0  0  0  0  0  0  0  0  0  0
   -3.4280   -1.9662    0.4958 H   0  0  0  0  0  0  0  0  0  0  0  0
   -3.1101   -4.1748    0.5467 H   0  0  0  0  0  0  0  0  0  0  0  0
   -1.7700   -3.0833   -1.6849 H   0  0  0  0  0  0  0  0  0  0  0  0
   -3.3755   -2.0369   -3.1163 H   0  0  0  0  0  0  0  0  0  0  0  0
   -4.2580   -2.7622   -1.7751 H   0  0  0  0  0  0  0  0  0  0  0  0
   -3.8028   -0.4132   -0.7664 H   0  0  0  0  0  0  0  0  0  0  0  0
   -4.0637    2.4869    1.6288 H   0  0  0  0  0  0  0  0  0  0  0  0
   -0.2025    5.4857    1.5780 H   0  0  0  0  0  0  0  0  0  0  0  0
   -0.2987    5.5713   -0.1896 H   0  0  0  0  0  0  0  0  0  0  0  0
  1  2  3  0
  2  3  1  0
  3  4  2  0
  4  5  1  0
  5  6  1  0
  6  7  2  0
  7  8  1  0
  8  9  2  0
  9 10  1  0
 10 11  1  0
 10 12  2  0
 12 13  1  0
 13 14  2  0
  4 15  1  0
 15 16  1  0
 16 17  1  0
 17 18  1  0
 18 19  1  0
 18 20  1  0
 20 21  1  0
 21 22  1  0
 20 23  1  0
 15 24  1  0
 24 25  2  0
 25 26  1  0
 26 27  2  0
 27 28  1  0
 28 29  1  0
 28 30  2  0
 30  3  1  0
 14  5  1  0
 23 16  1  0
 30 24  1  0
 14  8  1  0
  9 31  1  0
 12 32  1  0
 13 33  1  0
 16 34  1  6
 17 35  1  0
 17 36  1  0
 18 37  1  1
 19 38  1  0
 20 39  1  6
 21 40  1  0
 21 41  1  0
 22 42  1  0
 26 43  1  0
 29 44  1  0
 29 45  1  0
M  END
