
     RDKit          3D

 44 48  0  0  0  0  0  0  0  0999 V2000
    8.4853   -0.8847    0.4230 C   0  0  0  0  0  0  0  0  0  0  0  0
    7.7146    0.1616    0.9847 O   0  0  0  0  0  0  0  0  0  0  0  0
    6.3439    0.2057    0.8517 C   0  0  0  0  0  0  0  0  0  0  0  0
    5.6393    1.2419    1.4150 C   0  0  0  0  0  0  0  0  0  0  0  0
    4.2585    1.2988    1.2888 C   0  0  0  0  0  0  0  0  0  0  0  0
    3.5646    0.3176    0.5960 C   0  0  0  0  0  0  0  0  0  0  0  0
    2.1301    0.3408    0.4425 C   0  0  0  0  0  0  0  0  0  0  0  0
    1.4021   -0.5337   -0.1878 C   0  0  0  0  0  0  0  0  0  0  0  0
   -0.0488   -0.3650   -0.2526 C   0  0  0  0  0  0  0  0  0  0  0  0
   -0.7556    0.6408    0.2915 N   0  0  0  0  0  0  0  0  0  0  0  0
   -2.0702    0.4714    0.0320 C   0  0  0  0  0  0  0  0  0  0  0  0
   -3.2298    1.1613    0.3261 C   0  0  0  0  0  0  0  0  0  0  0  0
   -3.0794    2.3180    1.0645 C   0  0  0  0  0  0  0  0  0  0  0  0
   -4.2144    3.0306    1.3757 C   0  0  0  0  0  0  0  0  0  0  0  0
   -5.4337    2.5860    0.9558 C   0  0  0  0  0  0  0  0  0  0  0  0
   -5.5957    1.4119    0.2052 C   0  0  0  0  0  0  0  0  0  0  0  0
   -4.4637    0.7146   -0.0968 C   0  0  0  0  0  0  0  0  0  0  0  0
   -4.5611   -0.4317   -0.8226 C   0  0  0  0  0  0  0  0  0  0  0  0
   -5.7621   -0.9220   -1.2687 C   0  0  0  0  0  0  0  0  0  0  0  0
   -5.8089   -2.0859   -1.9995 C   0  0  0  0  0  0  0  0  0  0  0  0
   -4.6446   -2.7657   -2.2868 C   0  0  0  0  0  0  0  0  0  0  0  0
   -3.4221   -2.3006   -1.8538 C   0  0  0  0  0  0  0  0  0  0  0  0
   -3.3724   -1.1275   -1.1169 C   0  0  0  0  0  0  0  0  0  0  0  0
   -2.1346   -0.6937   -0.7017 C   0  0  0  0  0  0  0  0  0  0  0  0
   -0.9106   -1.1646   -0.8518 O   0  0  0  0  0  0  0  0  0  0  0  0
    4.2974   -0.7011    0.0470 C   0  0  0  0  0  0  0  0  0  0  0  0
    5.6848   -0.7657    0.1692 C   0  0  0  0  0  0  0  0  0  0  0  0
    8.1775   -1.8739    0.8454 H   0  0  0  0  0  0  0  0  0  0  0  0
    9.5354   -0.7382    0.7558 H   0  0  0  0  0  0  0  0  0  0  0  0
    8.4040   -0.9021   -0.6722 H   0  0  0  0  0  0  0  0  0  0  0  0
    6.1905    1.9978    1.9506 H   0  0  0  0  0  0  0  0  0  0  0  0
    3.7437    2.1290    1.7458 H   0  0  0  0  0  0  0  0  0  0  0  0
    1.6104    1.1955    0.9143 H   0  0  0  0  0  0  0  0  0  0  0  0
    1.8633   -1.3701   -0.6550 H   0  0  0  0  0  0  0  0  0  0  0  0
   -2.0966    2.6477    1.3851 H   0  0  0  0  0  0  0  0  0  0  0  0
   -4.0759    3.9372    1.9569 H   0  0  0  0  0  0  0  0  0  0  0  0
   -6.3017    3.1853    1.2276 H   0  0  0  0  0  0  0  0  0  0  0  0
   -6.5806    1.1752   -0.0576 H   0  0  0  0  0  0  0  0  0  0  0  0
   -6.6508   -0.4258   -1.0636 H   0  0  0  0  0  0  0  0  0  0  0  0
   -6.7462   -2.5019   -2.3685 H   0  0  0  0  0  0  0  0  0  0  0  0
   -4.6646   -3.7002   -2.8715 H   0  0  0  0  0  0  0  0  0  0  0  0
   -2.4982   -2.8213   -2.0701 H   0  0  0  0  0  0  0  0  0  0  0  0
    3.8479   -1.5023   -0.5050 H   0  0  0  0  0  0  0  0  0  0  0  0
    6.2288   -1.5909   -0.2814 H   0  0  0  0  0  0  0  0  0  0  0  0
  1  2  1  0
  2  3  1  0
  3  4  2  0
  4  5  1  0
  5  6  2  0
  6  7  1  0
  7  8  2  0
  8  9  1  0
  9 10  2  0
 10 11  1  0
 11 12  2  0
 12 13  1  0
 13 14  2  0
 14 15  1  0
 15 16  2  0
 16 17  1  0
 17 18  2  0
 18 19  1  0
 19 20  2  0
 20 21  1  0
 21 22  2  0
 22 23  1  0
 23 24  2  0
 24 25  1  0
  6 26  1  0
 26 27  2  0
 27  3  1  0
 25  9  1  0
 24 11  1  0
 17 12  1  0
 23 18  1  0
  1 28  1  0
  1 29  1  0
  1 30  1  0
  4 31  1  0
  5 32  1  0
  7 33  1  0
  8 34  1  0
 13 35  1  0
 14 36  1  0
 15 37  1  0
 16 38  1  0
 19 39  1  0
 20 40  1  0
 21 41  1  0
 22 42  1  0
 26 43  1  0
 27 44  1  0
M  END
