
     RDKit          3D

 97102  0  0  0  0  0  0  0  0999 V2000
   -0.6769    2.6943    4.6277 C   0  0  0  0  0  0  0  0  0  0  0  0
   -0.2491    2.8298    3.2851 O   0  0  0  0  0  0  0  0  0  0  0  0
   -0.3704    1.7891    2.3668 C   0  0  0  0  0  0  0  0  0  0  0  0
   -0.9247    0.5797    2.7546 C   0  0  0  0  0  0  0  0  0  0  0  0
   -1.0314   -0.4343    1.8262 C   0  0  0  0  0  0  0  0  0  0  0  0
   -0.6084   -0.2992    0.5161 C   0  0  0  0  0  0  0  0  0  0  0  0
   -0.6968   -1.4769   -0.3203 C   0  0  0  0  0  0  0  0  0  0  0  0
   -1.5322   -1.5124   -1.3648 C   0  0  0  0  0  0  0  0  0  0  0  0
   -2.4714   -0.5746   -1.9233 C   0  0  0  0  0  0  0  0  0  0  0  0
   -3.0713    0.6215   -1.4463 C   0  0  0  0  0  0  0  0  0  0  0  0
   -3.1576    1.2697   -0.3361 C   0  0  0  0  0  0  0  0  0  0  0  0
   -3.8759    2.5556   -0.1412 C   0  0  0  0  0  0  0  0  0  0  0  0
   -4.4100    3.2892   -1.1595 C   0  0  0  0  0  0  0  0  0  0  0  0
   -5.1631    4.4353   -0.9882 C   0  0  0  0  0  0  0  0  0  0  0  0
   -5.7023    5.1807   -2.0183 O   0  0  0  0  0  0  0  0  0  0  0  0
   -5.5539    4.8820   -3.3839 C   0  0  0  0  0  0  0  0  0  0  0  0
   -5.3810    4.8543    0.3262 C   0  0  0  0  0  0  0  0  0  0  0  0
   -6.1329    5.9897    0.5078 O   0  0  0  0  0  0  0  0  0  0  0  0
   -5.6537    7.3053    0.5694 C   0  0  0  0  0  0  0  0  0  0  0  0
   -4.8617    4.1497    1.3897 C   0  0  0  0  0  0  0  0  0  0  0  0
   -5.0973    4.5921    2.6569 O   0  0  0  0  0  0  0  0  0  0  0  0
   -4.6743    4.0737    3.8604 C   0  0  0  0  0  0  0  0  0  0  0  0
   -4.1100    3.0015    1.1390 C   0  0  0  0  0  0  0  0  0  0  0  0
   -2.7410   -1.0714   -3.1800 C   0  0  0  0  0  0  0  0  0  0  0  0
   -3.6435   -0.4473   -4.1186 C   0  0  0  0  0  0  0  0  0  0  0  0
   -3.8947   -0.8996   -5.2741 O   0  0  0  0  0  0  0  0  0  0  0  0
   -2.0137   -2.2901   -3.3738 C   0  0  0  0  0  0  0  0  0  0  0  0
   -2.0630   -3.1295   -4.6046 C   0  0  0  0  0  0  0  0  0  0  0  0
   -1.3153   -2.5675   -2.3424 N   0  0  0  0  0  4  0  0  0  0  0  0
   -0.5006   -3.7892   -2.0647 B   0  0  0  0  0  4  0  0  0  0  0  0
    0.3394   -4.0824   -3.2362 F   0  0  0  0  0  0  0  0  0  0  0  0
   -1.3881   -4.9478   -1.8569 F   0  0  0  0  0  0  0  0  0  0  0  0
    0.3480   -3.6704   -0.8316 N   0  0  0  0  0  0  0  0  0  0  0  0
    1.3001   -4.5166   -0.4083 C   0  0  0  0  0  0  0  0  0  0  0  0
    1.6594   -5.8415   -1.0308 C   0  0  0  0  0  0  0  0  0  0  0  0
    1.8555   -3.9418    0.6942 C   0  0  0  0  0  0  0  0  0  0  0  0
    2.9185   -4.5029    1.4914 C   0  0  0  0  0  0  0  0  0  0  0  0
    2.6152   -5.2512    2.4737 O   0  0  0  0  0  0  0  0  0  0  0  0
    1.1981   -2.7047    0.9269 C   0  0  0  0  0  0  0  0  0  0  0  0
    1.6444   -1.8012    1.9488 C   0  0  0  0  0  0  0  0  0  0  0  0
    2.8181   -1.2445    2.0359 C   0  0  0  0  0  0  0  0  0  0  0  0
    3.9757   -1.3315    1.1847 C   0  0  0  0  0  0  0  0  0  0  0  0
    5.2039   -0.9132    1.6613 C   0  0  0  0  0  0  0  0  0  0  0  0
    6.3199   -0.9203    0.8941 C   0  0  0  0  0  0  0  0  0  0  0  0
    7.5262   -0.4949    1.4061 O   0  0  0  0  0  0  0  0  0  0  0  0
    7.7970   -0.0200    2.6778 C   0  0  0  0  0  0  0  0  0  0  0  0
    6.3057   -1.3519   -0.4383 C   0  0  0  0  0  0  0  0  0  0  0  0
    7.4685   -1.3411   -1.1763 O   0  0  0  0  0  0  0  0  0  0  0  0
    8.2841   -2.5210   -1.1627 C   0  0  0  0  0  0  0  0  0  0  0  0
    5.1046   -1.7630   -0.9172 C   0  0  0  0  0  0  0  0  0  0  0  0
    4.9976   -2.2176   -2.2527 O   0  0  0  0  0  0  0  0  0  0  0  0
    3.8677   -2.6496   -2.8863 C   0  0  0  0  0  0  0  0  0  0  0  0
    3.9535   -1.7529   -0.1195 C   0  0  0  0  0  0  0  0  0  0  0  0
    0.2575   -2.5784   -0.0534 C   0  0  0  0  0  0  0  0  0  0  0  0
   -0.0560    0.9056    0.1262 C   0  0  0  0  0  0  0  0  0  0  0  0
    0.0474    1.9134    1.0598 C   0  0  0  0  0  0  0  0  0  0  0  0
    0.0975    2.1207    5.2204 H   0  0  0  0  0  0  0  0  0  0  0  0
   -1.6347    2.1974    4.7516 H   0  0  0  0  0  0  0  0  0  0  0  0
   -0.7523    3.6748    5.1359 H   0  0  0  0  0  0  0  0  0  0  0  0
   -1.2541    0.4691    3.7781 H   0  0  0  0  0  0  0  0  0  0  0  0
   -1.4751   -1.3921    2.1548 H   0  0  0  0  0  0  0  0  0  0  0  0
   -3.6267    1.2464   -2.2367 H   0  0  0  0  0  0  0  0  0  0  0  0
   -2.7747    0.8202    0.5391 H   0  0  0  0  0  0  0  0  0  0  0  0
   -4.2495    2.9931   -2.1889 H   0  0  0  0  0  0  0  0  0  0  0  0
   -4.7041    4.2541   -3.6435 H   0  0  0  0  0  0  0  0  0  0  0  0
   -6.4826    4.3962   -3.7943 H   0  0  0  0  0  0  0  0  0  0  0  0
   -5.4288    5.8338   -3.9936 H   0  0  0  0  0  0  0  0  0  0  0  0
   -4.5963    7.3861    0.8155 H   0  0  0  0  0  0  0  0  0  0  0  0
   -6.2333    7.8158    1.3760 H   0  0  0  0  0  0  0  0  0  0  0  0
   -5.8948    7.8465   -0.3943 H   0  0  0  0  0  0  0  0  0  0  0  0
   -3.6464    4.4830    4.1152 H   0  0  0  0  0  0  0  0  0  0  0  0
   -4.4965    2.9739    3.8208 H   0  0  0  0  0  0  0  0  0  0  0  0
   -5.3866    4.3546    4.6656 H   0  0  0  0  0  0  0  0  0  0  0  0
   -3.6935    2.4376    1.9751 H   0  0  0  0  0  0  0  0  0  0  0  0
   -4.1580    0.4707   -3.8532 H   0  0  0  0  0  0  0  0  0  0  0  0
   -2.5071   -2.5814   -5.4224 H   0  0  0  0  0  0  0  0  0  0  0  0
   -1.0278   -3.4449   -4.8860 H   0  0  0  0  0  0  0  0  0  0  0  0
   -2.7016   -4.0127   -4.3481 H   0  0  0  0  0  0  0  0  0  0  0  0
    2.5531   -6.2107   -0.5306 H   0  0  0  0  0  0  0  0  0  0  0  0
    1.7588   -5.6624   -2.1171 H   0  0  0  0  0  0  0  0  0  0  0  0
    0.7770   -6.5243   -0.9295 H   0  0  0  0  0  0  0  0  0  0  0  0
    3.9762   -4.3359    1.3200 H   0  0  0  0  0  0  0  0  0  0  0  0
    0.9645   -1.5934    2.8073 H   0  0  0  0  0  0  0  0  0  0  0  0
    2.9446   -0.5759    2.9300 H   0  0  0  0  0  0  0  0  0  0  0  0
    5.2811   -0.5584    2.7076 H   0  0  0  0  0  0  0  0  0  0  0  0
    7.3728   -0.6916    3.4419 H   0  0  0  0  0  0  0  0  0  0  0  0
    8.9227   -0.0170    2.7834 H   0  0  0  0  0  0  0  0  0  0  0  0
    7.4533    1.0361    2.8273 H   0  0  0  0  0  0  0  0  0  0  0  0
    8.8203   -2.6534   -0.2103 H   0  0  0  0  0  0  0  0  0  0  0  0
    8.9561   -2.5154   -2.0497 H   0  0  0  0  0  0  0  0  0  0  0  0
    7.6425   -3.4193   -1.2924 H   0  0  0  0  0  0  0  0  0  0  0  0
    3.8399   -3.7865   -2.8751 H   0  0  0  0  0  0  0  0  0  0  0  0
    2.8933   -2.3214   -2.4935 H   0  0  0  0  0  0  0  0  0  0  0  0
    3.9047   -2.3766   -3.9994 H   0  0  0  0  0  0  0  0  0  0  0  0
    3.0371   -2.0557   -0.5962 H   0  0  0  0  0  0  0  0  0  0  0  0
    0.2639    0.9892   -0.8901 H   0  0  0  0  0  0  0  0  0  0  0  0
    0.4812    2.8704    0.7664 H   0  0  0  0  0  0  0  0  0  0  0  0
  1  2  1  0
  2  3  1  0
  3  4  2  0
  4  5  1  0
  5  6  2  0
  6  7  1  0
  7  8  2  0
  8  9  1  0
  9 10  1  0
 10 11  2  0
 11 12  1  0
 12 13  2  0
 13 14  1  0
 14 15  1  0
 15 16  1  0
 14 17  2  0
 17 18  1  0
 18 19  1  0
 17 20  1  0
 20 21  1  0
 21 22  1  0
 20 23  2  0
  9 24  2  0
 24 25  1  0
 25 26  2  0
 24 27  1  0
 27 28  1  0
 27 29  2  0
 29 30  1  0
 30 31  1  0
 30 32  1  0
 30 33  1  0
 33 34  1  0
 34 35  1  0
 34 36  2  0
 36 37  1  0
 37 38  2  0
 36 39  1  0
 39 40  1  0
 40 41  2  3
 41 42  1  0
 42 43  2  0
 43 44  1  0
 44 45  1  0
 45 46  1  0
 44 47  2  0
 47 48  1  0
 48 49  1  0
 47 50  1  0
 50 51  1  0
 51 52  1  0
 50 53  2  0
 39 54  2  0
  6 55  1  0
 55 56  2  0
 56  3  1  0
 54  7  1  0
 29  8  1  0
 54 33  1  0
 23 12  1  0
 53 42  1  0
  1 57  1  0
  1 58  1  0
  1 59  1  0
  4 60  1  0
  5 61  1  0
 10 62  1  0
 11 63  1  0
 13 64  1  0
 16 65  1  0
 16 66  1  0
 16 67  1  0
 19 68  1  0
 19 69  1  0
 19 70  1  0
 22 71  1  0
 22 72  1  0
 22 73  1  0
 23 74  1  0
 25 75  1  0
 28 76  1  0
 28 77  1  0
 28 78  1  0
 35 79  1  0
 35 80  1  0
 35 81  1  0
 37 82  1  0
 40 83  1  0
 41 84  1  0
 43 85  1  0
 46 86  1  0
 46 87  1  0
 46 88  1  0
 49 89  1  0
 49 90  1  0
 49 91  1  0
 52 92  1  0
 52 93  1  0
 52 94  1  0
 53 95  1  0
 55 96  1  0
 56 97  1  0
M  CHG  2  29   1  30  -1
M  END
