
     RDKit          3D

 56 62  0  0  0  0  0  0  0  0999 V2000
    4.9078   -2.7178   -2.6217 C   0  0  0  0  0  0  0  0  0  0  0  0
    4.4735   -1.5623   -1.8116 C   0  0  0  0  0  0  0  0  0  0  0  0
    3.1128   -1.4720   -1.5039 C   0  0  0  0  0  0  0  0  0  0  0  0
    2.7167   -0.4039   -0.7614 C   0  0  0  0  0  0  0  0  0  0  0  0
    3.5850    0.5569   -0.3209 N   0  0  0  0  0  0  0  0  0  0  0  0
    4.8852    0.4691   -0.6161 C   0  0  0  0  0  0  0  0  0  0  0  0
    5.7948    1.4242   -0.1841 C   0  0  0  0  0  0  0  0  0  0  0  0
    7.1508    1.2966   -0.5119 C   0  0  0  0  0  0  0  0  0  0  0  0
    7.5784    0.2301   -1.2578 C   0  0  0  0  0  0  0  0  0  0  0  0
    6.6934   -0.7202   -1.6913 C   0  0  0  0  0  0  0  0  0  0  0  0
    5.3357   -0.5951   -1.3651 C   0  0  0  0  0  0  0  0  0  0  0  0
    1.3014   -0.2638   -0.3740 C   0  0  0  0  0  0  0  0  0  0  0  0
    0.9391    0.8439    0.3409 C   0  0  0  0  0  0  0  0  0  0  0  0
   -0.3839    1.0682    0.7171 C   0  0  0  0  0  0  0  0  0  0  0  0
   -1.2777    0.1157    0.3254 C   0  0  0  0  0  0  0  0  0  0  0  0
   -0.9318   -0.9979   -0.3892 C   0  0  0  0  0  0  0  0  0  0  0  0
    0.3872   -1.2043   -0.7533 C   0  0  0  0  0  0  0  0  0  0  0  0
    0.7898   -2.4026   -1.4896 C   0  0  0  0  0  0  0  0  0  0  0  0
    2.1698   -2.4766   -1.9891 C   0  0  0  0  0  0  0  0  0  0  0  0
   -2.6942    0.3421    0.7175 C   0  0  0  0  0  0  0  0  0  0  0  0
   -3.6326   -0.5539    0.3691 N   0  0  0  0  0  0  0  0  0  0  0  0
   -4.9356   -0.4217    0.6872 C   0  0  0  0  0  0  0  0  0  0  0  0
   -5.8826   -1.3591    0.3159 C   0  0  0  0  0  0  0  0  0  0  0  0
   -7.2214   -1.2397    0.6329 C   0  0  0  0  0  0  0  0  0  0  0  0
   -7.6305   -0.1357    1.3518 C   0  0  0  0  0  0  0  0  0  0  0  0
   -6.6962    0.8099    1.7302 C   0  0  0  0  0  0  0  0  0  0  0  0
   -5.3619    0.6788    1.4073 C   0  0  0  0  0  0  0  0  0  0  0  0
   -4.4075    1.6239    1.7813 C   0  0  0  0  0  0  0  0  0  0  0  0
   -4.8900    2.7973    2.5550 C   0  0  0  0  0  0  0  0  0  0  0  0
   -3.0848    1.4450    1.4323 C   0  0  0  0  0  0  0  0  0  0  0  0
   -2.1230    2.4873    1.8594 C   0  0  0  0  0  0  0  0  0  0  0  0
   -0.7182    2.2796    1.4883 C   0  0  0  0  0  0  0  0  0  0  0  0
    5.6509   -2.4344   -3.4038 H   0  0  0  0  0  0  0  0  0  0  0  0
    4.0298   -3.1039   -3.1764 H   0  0  0  0  0  0  0  0  0  0  0  0
    5.3145   -3.5309   -2.0019 H   0  0  0  0  0  0  0  0  0  0  0  0
    5.4757    2.2727    0.4055 H   0  0  0  0  0  0  0  0  0  0  0  0
    7.8228    2.0651   -0.1535 H   0  0  0  0  0  0  0  0  0  0  0  0
    8.6151    0.1399   -1.5036 H   0  0  0  0  0  0  0  0  0  0  0  0
    7.0572   -1.5518   -2.2758 H   0  0  0  0  0  0  0  0  0  0  0  0
    1.6842    1.5692    0.6272 H   0  0  0  0  0  0  0  0  0  0  0  0
   -1.6667   -1.7266   -0.6793 H   0  0  0  0  0  0  0  0  0  0  0  0
    0.6595   -3.2537   -0.7424 H   0  0  0  0  0  0  0  0  0  0  0  0
    0.0461   -2.6570   -2.3011 H   0  0  0  0  0  0  0  0  0  0  0  0
    2.5811   -3.5199   -1.8357 H   0  0  0  0  0  0  0  0  0  0  0  0
    2.1188   -2.4070   -3.1265 H   0  0  0  0  0  0  0  0  0  0  0  0
   -5.5312   -2.2112   -0.2457 H   0  0  0  0  0  0  0  0  0  0  0  0
   -7.9592   -1.9905    0.3317 H   0  0  0  0  0  0  0  0  0  0  0  0
   -8.6770   -0.0363    1.6031 H   0  0  0  0  0  0  0  0  0  0  0  0
   -7.0308    1.6734    2.2955 H   0  0  0  0  0  0  0  0  0  0  0  0
   -4.0843    3.5282    2.7400 H   0  0  0  0  0  0  0  0  0  0  0  0
   -5.7583    3.2442    2.0257 H   0  0  0  0  0  0  0  0  0  0  0  0
   -5.1979    2.4281    3.5691 H   0  0  0  0  0  0  0  0  0  0  0  0
   -2.2016    2.5790    2.9705 H   0  0  0  0  0  0  0  0  0  0  0  0
   -2.4782    3.5000    1.4863 H   0  0  0  0  0  0  0  0  0  0  0  0
   -0.0660    2.2947    2.4101 H   0  0  0  0  0  0  0  0  0  0  0  0
   -0.3542    3.1868    0.9104 H   0  0  0  0  0  0  0  0  0  0  0  0
  1  2  1  0
  2  3  2  0
  3  4  1  0
  4  5  2  0
  5  6  1  0
  6  7  2  0
  7  8  1  0
  8  9  2  0
  9 10  1  0
 10 11  2  0
  4 12  1  0
 12 13  2  0
 13 14  1  0
 14 15  2  0
 15 16  1  0
 16 17  2  0
 17 18  1  0
 18 19  1  0
 15 20  1  0
 20 21  2  0
 21 22  1  0
 22 23  2  0
 23 24  1  0
 24 25  2  0
 25 26  1  0
 26 27  2  0
 27 28  1  0
 28 29  1  0
 28 30  2  0
 30 31  1  0
 31 32  1  0
 11  2  1  0
 17 12  1  0
 30 20  1  0
 19  3  1  0
 27 22  1  0
 11  6  1  0
 32 14  1  0
  1 33  1  0
  1 34  1  0
  1 35  1  0
  7 36  1  0
  8 37  1  0
  9 38  1  0
 10 39  1  0
 13 40  1  0
 16 41  1  0
 18 42  1  0
 18 43  1  0
 19 44  1  0
 19 45  1  0
 23 46  1  0
 24 47  1  0
 25 48  1  0
 26 49  1  0
 29 50  1  0
 29 51  1  0
 29 52  1  0
 31 53  1  0
 31 54  1  0
 32 55  1  0
 32 56  1  0
M  END
