
     RDKit          3D

 71 75  0  0  0  0  0  0  0  0999 V2000
   -2.6097   -2.3186   -3.2545 C   0  0  0  0  0  0  0  0  0  0  0  0
   -1.5680   -2.0212   -2.4188 O   0  0  0  0  0  0  0  0  0  0  0  0
   -1.1246   -0.7568   -2.4370 C   0  0  0  0  0  0  0  0  0  0  0  0
   -0.0358   -0.2716   -1.6206 C   0  0  0  0  0  0  0  0  0  0  0  0
    0.0200   -0.2743   -0.1740 C   0  0  0  0  0  0  0  0  0  0  0  0
    0.0180   -1.5253    0.6416 C   0  0  0  0  0  0  0  0  0  0  0  0
    1.1414   -2.4784    0.4830 C   0  0  0  0  0  0  0  0  0  0  0  0
    1.3277   -3.1222   -0.6941 O   0  0  0  0  0  0  0  0  0  0  0  0
    0.3736   -4.1342   -0.9066 C   0  0  0  0  0  0  0  0  0  0  0  0
    1.2959    0.4087    0.1972 C   0  0  0  0  0  0  0  0  0  0  0  0
    2.6244    0.1007   -0.1717 C   0  0  0  0  0  0  0  0  0  0  0  0
    3.6647    0.8518    0.3130 C   0  0  0  0  0  0  0  0  0  0  0  0
    5.0514    0.5847   -0.0262 C   0  0  0  0  0  0  0  0  0  0  0  0
    6.0175    1.5758   -0.1095 C   0  0  0  0  0  0  0  0  0  0  0  0
    7.3256    1.2524   -0.4382 C   0  0  0  0  0  0  0  0  0  0  0  0
    7.7180   -0.0438   -0.6924 C   0  0  0  0  0  0  0  0  0  0  0  0
    9.0383   -0.3804   -1.0255 O   0  0  0  0  0  0  0  0  0  0  0  0
   10.0405    0.6126   -1.1159 C   0  0  0  0  0  0  0  0  0  0  0  0
    6.7598   -1.0299   -0.6102 C   0  0  0  0  0  0  0  0  0  0  0  0
    5.4389   -0.7144   -0.2797 C   0  0  0  0  0  0  0  0  0  0  0  0
    3.3930    1.9147    1.1666 C   0  0  0  0  0  0  0  0  0  0  0  0
    2.0945    2.2109    1.5206 C   0  0  0  0  0  0  0  0  0  0  0  0
    1.0399    1.4499    1.0288 C   0  0  0  0  0  0  0  0  0  0  0  0
   -0.3985    1.5542    1.1721 C   0  0  0  0  0  0  0  0  0  0  0  0
   -1.2064    2.4668    1.8810 C   0  0  0  0  0  0  0  0  0  0  0  0
   -2.5836    2.3905    1.8360 C   0  0  0  0  0  0  0  0  0  0  0  0
   -3.2284    1.4204    1.0976 C   0  0  0  0  0  0  0  0  0  0  0  0
   -4.6950    1.3390    1.0496 C   0  0  0  0  0  0  0  0  0  0  0  0
   -5.4409    2.4948    1.1462 C   0  0  0  0  0  0  0  0  0  0  0  0
   -6.8104    2.5135    1.1118 C   0  0  0  0  0  0  0  0  0  0  0  0
   -7.4605    1.3037    0.9726 C   0  0  0  0  0  0  0  0  0  0  0  0
   -8.8475    1.3486    0.9405 O   0  0  0  0  0  0  0  0  0  0  0  0
   -9.5754    0.1678    0.8018 C   0  0  0  0  0  0  0  0  0  0  0  0
   -6.7374    0.1274    0.8732 C   0  0  0  0  0  0  0  0  0  0  0  0
   -5.3586    0.1481    0.9119 C   0  0  0  0  0  0  0  0  0  0  0  0
   -2.4315    0.5328    0.4092 C   0  0  0  0  0  0  0  0  0  0  0  0
   -1.0309    0.6093    0.4549 C   0  0  0  0  0  0  0  0  0  0  0  0
   -2.8456   -3.4124   -3.1067 H   0  0  0  0  0  0  0  0  0  0  0  0
   -3.5201   -1.7856   -2.8845 H   0  0  0  0  0  0  0  0  0  0  0  0
   -2.4431   -2.0815   -4.3176 H   0  0  0  0  0  0  0  0  0  0  0  0
   -0.8191   -0.5617   -3.5308 H   0  0  0  0  0  0  0  0  0  0  0  0
   -2.0631   -0.0947   -2.3948 H   0  0  0  0  0  0  0  0  0  0  0  0
    0.1596    0.8131   -1.9338 H   0  0  0  0  0  0  0  0  0  0  0  0
    0.9258   -0.7601   -2.0026 H   0  0  0  0  0  0  0  0  0  0  0  0
   -0.9834   -2.0182    0.6821 H   0  0  0  0  0  0  0  0  0  0  0  0
    0.1201   -1.1454    1.7113 H   0  0  0  0  0  0  0  0  0  0  0  0
    0.9207   -3.3085    1.2544 H   0  0  0  0  0  0  0  0  0  0  0  0
    2.0690   -2.0162    0.9026 H   0  0  0  0  0  0  0  0  0  0  0  0
   -0.6301   -3.7276   -0.8359 H   0  0  0  0  0  0  0  0  0  0  0  0
    0.5950   -4.9713   -0.2130 H   0  0  0  0  0  0  0  0  0  0  0  0
    0.4750   -4.5274   -1.9594 H   0  0  0  0  0  0  0  0  0  0  0  0
    2.7843   -0.7178   -0.8490 H   0  0  0  0  0  0  0  0  0  0  0  0
    5.7054    2.5966    0.0914 H   0  0  0  0  0  0  0  0  0  0  0  0
    8.0748    2.0294   -0.5017 H   0  0  0  0  0  0  0  0  0  0  0  0
    9.6738    1.4879   -1.6929 H   0  0  0  0  0  0  0  0  0  0  0  0
   10.9210    0.1496   -1.6378 H   0  0  0  0  0  0  0  0  0  0  0  0
   10.3136    0.8889   -0.0794 H   0  0  0  0  0  0  0  0  0  0  0  0
    7.0237   -2.0681   -0.8028 H   0  0  0  0  0  0  0  0  0  0  0  0
    4.6884   -1.4847   -0.2151 H   0  0  0  0  0  0  0  0  0  0  0  0
    4.2434    2.4777    1.5240 H   0  0  0  0  0  0  0  0  0  0  0  0
    1.8800    3.0252    2.1745 H   0  0  0  0  0  0  0  0  0  0  0  0
   -0.6700    3.2160    2.4510 H   0  0  0  0  0  0  0  0  0  0  0  0
   -3.1904    3.1081    2.3931 H   0  0  0  0  0  0  0  0  0  0  0  0
   -4.9132    3.4314    1.2545 H   0  0  0  0  0  0  0  0  0  0  0  0
   -7.3699    3.4534    1.1918 H   0  0  0  0  0  0  0  0  0  0  0  0
   -9.1988   -0.6370    1.4820 H   0  0  0  0  0  0  0  0  0  0  0  0
  -10.6531    0.2942    1.0497 H   0  0  0  0  0  0  0  0  0  0  0  0
   -9.5288   -0.1828   -0.2373 H   0  0  0  0  0  0  0  0  0  0  0  0
   -7.2950   -0.7904    0.7658 H   0  0  0  0  0  0  0  0  0  0  0  0
   -4.7798   -0.7626    0.8353 H   0  0  0  0  0  0  0  0  0  0  0  0
   -2.9101   -0.2254   -0.1657 H   0  0  0  0  0  0  0  0  0  0  0  0
  1  2  1  0
  2  3  1  0
  3  4  1  0
  4  5  1  0
  5  6  1  0
  6  7  1  0
  7  8  1  0
  8  9  1  0
  5 10  1  0
 10 11  2  0
 11 12  1  0
 12 13  1  0
 13 14  2  0
 14 15  1  0
 15 16  2  0
 16 17  1  0
 17 18  1  0
 16 19  1  0
 19 20  2  0
 12 21  2  0
 21 22  1  0
 22 23  2  0
 23 24  1  0
 24 25  2  0
 25 26  1  0
 26 27  2  0
 27 28  1  0
 28 29  2  0
 29 30  1  0
 30 31  2  0
 31 32  1  0
 32 33  1  0
 31 34  1  0
 34 35  2  0
 27 36  1  0
 36 37  2  0
 37  5  1  0
 23 10  1  0
 37 24  1  0
 20 13  1  0
 35 28  1  0
  1 38  1  0
  1 39  1  0
  1 40  1  0
  3 41  1  0
  3 42  1  0
  4 43  1  0
  4 44  1  0
  6 45  1  0
  6 46  1  0
  7 47  1  0
  7 48  1  0
  9 49  1  0
  9 50  1  0
  9 51  1  0
 11 52  1  0
 14 53  1  0
 15 54  1  0
 18 55  1  0
 18 56  1  0
 18 57  1  0
 19 58  1  0
 20 59  1  0
 21 60  1  0
 22 61  1  0
 25 62  1  0
 26 63  1  0
 29 64  1  0
 30 65  1  0
 33 66  1  0
 33 67  1  0
 33 68  1  0
 34 69  1  0
 35 70  1  0
 36 71  1  0
M  END
