
     RDKit          3D

 53 59  0  0  0  0  0  0  0  0999 V2000
    0.8776    1.7014   -2.0498 O   0  0  0  0  0  0  0  0  0  0  0  0
    0.6582    0.9277   -1.1136 C   0  0  0  0  0  0  0  0  0  0  0  0
    1.6938    0.2086   -0.4246 C   0  0  0  0  0  0  0  0  0  0  0  0
    1.3742   -0.6196    0.5899 C   0  0  0  0  0  0  0  0  0  0  0  0
    2.3274   -1.3161    1.2617 O   0  0  0  0  0  0  0  0  0  0  0  0
    3.7455   -1.1207    1.0710 B   0  0  0  0  0  4  0  0  0  0  0  0
    4.4650   -0.7970    2.2803 F   0  0  0  0  0  0  0  0  0  0  0  0
    4.2491   -2.4869    0.7205 F   0  0  0  0  0  0  0  0  0  0  0  0
    4.0711   -0.2698   -0.1126 N   0  0  0  0  0  4  0  0  0  0  0  0
    3.1043    0.3812   -0.7845 C   0  0  0  0  0  0  0  0  0  0  0  0
    3.4263    1.1983   -1.8569 C   0  0  0  0  0  0  0  0  0  0  0  0
    4.7594    1.3082   -2.1954 C   0  0  0  0  0  0  0  0  0  0  0  0
    5.7360    0.6307   -1.4937 C   0  0  0  0  0  0  0  0  0  0  0  0
    7.0772    0.7563   -1.8543 C   0  0  0  0  0  0  0  0  0  0  0  0
    8.0475    0.0807   -1.1541 C   0  0  0  0  0  0  0  0  0  0  0  0
    7.7073   -0.7278   -0.0889 C   0  0  0  0  0  0  0  0  0  0  0  0
    6.3847   -0.8605    0.2777 C   0  0  0  0  0  0  0  0  0  0  0  0
    5.4155   -0.1804   -0.4282 C   0  0  0  0  0  0  0  0  0  0  0  0
   -0.0277   -0.8172    1.0267 C   0  0  0  0  0  0  0  0  0  0  0  0
   -0.3040   -1.6762    2.0742 C   0  0  0  0  0  0  0  0  0  0  0  0
   -1.6084   -1.8479    2.4691 C   0  0  0  0  0  0  0  0  0  0  0  0
   -2.6010   -1.1533    1.8025 C   0  0  0  0  0  0  0  0  0  0  0  0
   -2.3614   -0.2900    0.7549 C   0  0  0  0  0  0  0  0  0  0  0  0
   -3.3954    0.3726    0.1336 C   0  0  0  0  0  0  0  0  0  0  0  0
   -4.7506    0.2210    0.4934 N   0  0  0  0  0  0  0  0  0  0  0  0
   -5.4505   -1.0366    0.3525 C   0  0  0  0  0  0  0  0  0  0  0  0
   -6.6331   -0.8637   -0.6007 C   0  0  0  0  0  0  0  0  0  0  0  0
   -6.9911    0.4898   -0.7116 O   0  0  0  0  0  0  0  0  0  0  0  0
   -7.0299    1.0361    0.5505 C   0  0  0  0  0  0  0  0  0  0  0  0
   -5.5872    1.3084    1.0260 C   0  0  0  0  0  0  0  0  0  0  0  0
   -3.0213    1.2249   -0.9175 C   0  0  0  0  0  0  0  0  0  0  0  0
   -1.7152    1.3983   -1.3139 C   0  0  0  0  0  0  0  0  0  0  0  0
   -0.7397    0.7159   -0.6614 C   0  0  0  0  0  0  0  0  0  0  0  0
   -1.0250   -0.1341    0.3742 C   0  0  0  0  0  0  0  0  0  0  0  0
    2.7508    1.7566   -2.4576 H   0  0  0  0  0  0  0  0  0  0  0  0
    5.0738    1.9406   -3.0351 H   0  0  0  0  0  0  0  0  0  0  0  0
    7.3608    1.3756   -2.6737 H   0  0  0  0  0  0  0  0  0  0  0  0
    9.1057    0.1394   -1.3879 H   0  0  0  0  0  0  0  0  0  0  0  0
    8.4475   -1.2801    0.4916 H   0  0  0  0  0  0  0  0  0  0  0  0
    6.1066   -1.4798    1.0963 H   0  0  0  0  0  0  0  0  0  0  0  0
    0.5007   -2.2054    2.5747 H   0  0  0  0  0  0  0  0  0  0  0  0
   -1.8315   -2.5178    3.2873 H   0  0  0  0  0  0  0  0  0  0  0  0
   -3.6047   -1.2882    2.1167 H   0  0  0  0  0  0  0  0  0  0  0  0
   -5.8069   -1.3866    1.3444 H   0  0  0  0  0  0  0  0  0  0  0  0
   -4.8188   -1.8338   -0.0764 H   0  0  0  0  0  0  0  0  0  0  0  0
   -7.4535   -1.4772   -0.2170 H   0  0  0  0  0  0  0  0  0  0  0  0
   -6.3614   -1.1881   -1.6282 H   0  0  0  0  0  0  0  0  0  0  0  0
   -7.6538    1.9398    0.6404 H   0  0  0  0  0  0  0  0  0  0  0  0
   -7.4891    0.2671    1.2244 H   0  0  0  0  0  0  0  0  0  0  0  0
   -5.2940    2.2779    0.6272 H   0  0  0  0  0  0  0  0  0  0  0  0
   -5.6332    1.2534    2.1323 H   0  0  0  0  0  0  0  0  0  0  0  0
   -3.8145    1.7593   -1.4242 H   0  0  0  0  0  0  0  0  0  0  0  0
   -1.4626    2.0666   -2.1320 H   0  0  0  0  0  0  0  0  0  0  0  0
  1  2  2  0
  2  3  1  0
  3  4  2  0
  4  5  1  0
  5  6  1  0
  6  7  1  0
  6  8  1  0
  6  9  1  0
  9 10  2  0
 10 11  1  0
 11 12  2  0
 12 13  1  0
 13 14  2  0
 14 15  1  0
 15 16  2  0
 16 17  1  0
 17 18  2  0
  4 19  1  0
 19 20  1  0
 20 21  2  0
 21 22  1  0
 22 23  2  0
 23 24  1  0
 24 25  1  0
 25 26  1  0
 26 27  1  0
 27 28  1  0
 28 29  1  0
 29 30  1  0
 24 31  2  0
 31 32  1  0
 32 33  2  0
 33 34  1  0
 33  2  1  0
 10  3  1  0
 18 13  1  0
 34 19  2  0
 18  9  1  0
 34 23  1  0
 30 25  1  0
 11 35  1  0
 12 36  1  0
 14 37  1  0
 15 38  1  0
 16 39  1  0
 17 40  1  0
 20 41  1  0
 21 42  1  0
 22 43  1  0
 26 44  1  0
 26 45  1  0
 27 46  1  0
 27 47  1  0
 29 48  1  0
 29 49  1  0
 30 50  1  0
 30 51  1  0
 31 52  1  0
 32 53  1  0
M  CHG  2   6  -1   9   1
M  END
