
     RDKit          3D

 82 86  0  0  0  0  0  0  0  0999 V2000
  -11.3376   -3.0177   -1.4102 C   0  0  0  0  0  0  0  0  0  0  0  0
  -10.3808   -1.8949   -1.8005 C   0  0  0  0  0  0  0  0  0  0  0  0
  -10.2889   -0.9830   -0.5982 C   0  0  0  0  0  0  0  0  0  0  0  0
   -9.3700    0.1929   -0.8250 C   0  0  0  0  0  0  0  0  0  0  0  0
   -7.9579   -0.2492   -1.1372 C   0  0  0  0  0  0  0  0  0  0  0  0
   -7.0280    0.8902   -1.3648 C   0  0  0  0  0  0  0  0  0  0  0  0
   -6.9043    1.8160   -0.1795 C   0  0  0  0  0  0  0  0  0  0  0  0
   -6.4025    1.1421    1.0489 C   0  0  0  0  0  0  0  0  0  0  0  0
   -5.1653    0.5420    0.9893 O   0  0  0  0  0  0  0  0  0  0  0  0
   -3.9068    0.9922    0.7817 C   0  0  0  0  0  0  0  0  0  0  0  0
   -3.5585    2.2900    0.5815 C   0  0  0  0  0  0  0  0  0  0  0  0
   -2.2377    2.7103    0.3724 C   0  0  0  0  0  0  0  0  0  0  0  0
   -1.2279    1.7723    0.3670 C   0  0  0  0  0  0  0  0  0  0  0  0
    0.0830    2.1386    0.1679 C   0  0  0  0  0  0  0  0  0  0  0  0
    0.4024    3.4600   -0.0311 C   0  0  0  0  0  0  0  0  0  0  0  0
    1.7336    3.8073   -0.2290 C   0  0  0  0  0  0  0  0  0  0  0  0
    2.6942    2.8373   -0.2227 C   0  0  0  0  0  0  0  0  0  0  0  0
    2.3928    1.4933   -0.0230 C   0  0  0  0  0  0  0  0  0  0  0  0
    3.4535    0.5764   -0.0361 C   0  0  0  0  0  0  0  0  0  0  0  0
    4.7229    1.0624   -0.2474 O   0  0  0  0  0  0  0  0  0  0  0  0
    5.9024    0.2348   -0.2473 C   0  0  0  0  0  0  0  0  0  0  0  0
    6.1461   -0.3267    1.1034 C   0  0  0  0  0  0  0  0  0  0  0  0
    7.2405   -1.2770    1.2364 C   0  0  0  0  0  0  0  0  0  0  0  0
    8.6309   -0.8715    1.0706 C   0  0  0  0  0  0  0  0  0  0  0  0
    9.0544   -0.3143   -0.2256 C   0  0  0  0  0  0  0  0  0  0  0  0
   10.5910   -0.0549   -0.2404 C   0  0  0  0  0  0  0  0  0  0  0  0
   11.2983   -1.3452   -0.0567 C   0  0  0  0  0  0  0  0  0  0  0  0
   12.8097   -1.0947   -0.1004 C   0  0  0  0  0  0  0  0  0  0  0  0
    3.1182   -0.7359    0.1605 C   0  0  0  0  0  0  0  0  0  0  0  0
    1.7922   -1.1232    0.3635 C   0  0  0  0  0  0  0  0  0  0  0  0
    0.7807   -0.1889    0.3695 C   0  0  0  0  0  0  0  0  0  0  0  0
   -0.5336   -0.5478    0.5681 C   0  0  0  0  0  0  0  0  0  0  0  0
   -0.8594   -1.8578    0.7671 C   0  0  0  0  0  0  0  0  0  0  0  0
   -2.1909   -2.2116    0.9693 C   0  0  0  0  0  0  0  0  0  0  0  0
   -3.1789   -1.2619    0.9712 C   0  0  0  0  0  0  0  0  0  0  0  0
   -2.8508    0.0597    0.7702 C   0  0  0  0  0  0  0  0  0  0  0  0
   -1.5322    0.4298    0.5677 C   0  0  0  0  0  0  0  0  0  0  0  0
    1.0710    1.1605    0.1720 C   0  0  0  0  0  0  0  0  0  0  0  0
  -12.2035   -2.5087   -0.9106 H   0  0  0  0  0  0  0  0  0  0  0  0
  -11.6316   -3.5667   -2.3116 H   0  0  0  0  0  0  0  0  0  0  0  0
  -10.8122   -3.6657   -0.6936 H   0  0  0  0  0  0  0  0  0  0  0  0
  -10.7384   -1.3385   -2.6885 H   0  0  0  0  0  0  0  0  0  0  0  0
   -9.4290   -2.3658   -2.0590 H   0  0  0  0  0  0  0  0  0  0  0  0
  -10.0281   -1.5129    0.3152 H   0  0  0  0  0  0  0  0  0  0  0  0
  -11.3139   -0.5379   -0.4475 H   0  0  0  0  0  0  0  0  0  0  0  0
   -9.3289    0.7279    0.1618 H   0  0  0  0  0  0  0  0  0  0  0  0
   -9.7579    0.8739   -1.5844 H   0  0  0  0  0  0  0  0  0  0  0  0
   -7.5720   -0.9704   -0.4065 H   0  0  0  0  0  0  0  0  0  0  0  0
   -8.0280   -0.8061   -2.1132 H   0  0  0  0  0  0  0  0  0  0  0  0
   -6.0104    0.5070   -1.5867 H   0  0  0  0  0  0  0  0  0  0  0  0
   -7.3293    1.4952   -2.2397 H   0  0  0  0  0  0  0  0  0  0  0  0
   -7.9410    2.2101    0.0667 H   0  0  0  0  0  0  0  0  0  0  0  0
   -6.3241    2.7122   -0.4066 H   0  0  0  0  0  0  0  0  0  0  0  0
   -6.3125    1.9678    1.8314 H   0  0  0  0  0  0  0  0  0  0  0  0
   -7.1773    0.4729    1.5122 H   0  0  0  0  0  0  0  0  0  0  0  0
   -4.3108    3.0616    0.5924 H   0  0  0  0  0  0  0  0  0  0  0  0
   -2.0330    3.7466    0.2214 H   0  0  0  0  0  0  0  0  0  0  0  0
   -0.3448    4.2305   -0.0398 H   0  0  0  0  0  0  0  0  0  0  0  0
    1.9444    4.8542   -0.3816 H   0  0  0  0  0  0  0  0  0  0  0  0
    3.7364    3.0931   -0.3759 H   0  0  0  0  0  0  0  0  0  0  0  0
    5.7943   -0.5395   -1.0402 H   0  0  0  0  0  0  0  0  0  0  0  0
    6.7201    0.8889   -0.5613 H   0  0  0  0  0  0  0  0  0  0  0  0
    6.3910    0.6347    1.7349 H   0  0  0  0  0  0  0  0  0  0  0  0
    5.2098   -0.6409    1.6622 H   0  0  0  0  0  0  0  0  0  0  0  0
    7.0358   -2.2191    0.5769 H   0  0  0  0  0  0  0  0  0  0  0  0
    7.1007   -1.7842    2.2697 H   0  0  0  0  0  0  0  0  0  0  0  0
    9.2825   -1.7719    1.3450 H   0  0  0  0  0  0  0  0  0  0  0  0
    8.8261   -0.0953    1.9119 H   0  0  0  0  0  0  0  0  0  0  0  0
    8.6891    0.7341   -0.4043 H   0  0  0  0  0  0  0  0  0  0  0  0
    8.8759   -0.9916   -1.0761 H   0  0  0  0  0  0  0  0  0  0  0  0
   10.7904    0.6780    0.5637 H   0  0  0  0  0  0  0  0  0  0  0  0
   10.7877    0.3783   -1.2329 H   0  0  0  0  0  0  0  0  0  0  0  0
   11.0778   -2.0899   -0.8503 H   0  0  0  0  0  0  0  0  0  0  0  0
   11.1285   -1.8621    0.9071 H   0  0  0  0  0  0  0  0  0  0  0  0
   13.1356   -0.7265    0.8800 H   0  0  0  0  0  0  0  0  0  0  0  0
   13.0066   -0.2920   -0.8575 H   0  0  0  0  0  0  0  0  0  0  0  0
   13.3264   -2.0225   -0.3686 H   0  0  0  0  0  0  0  0  0  0  0  0
    3.8864   -1.5014    0.1285 H   0  0  0  0  0  0  0  0  0  0  0  0
    1.6426   -2.1604    0.5071 H   0  0  0  0  0  0  0  0  0  0  0  0
   -0.1055   -2.6156    0.7697 H   0  0  0  0  0  0  0  0  0  0  0  0
   -2.4373   -3.2635    1.1278 H   0  0  0  0  0  0  0  0  0  0  0  0
   -4.2249   -1.5145    1.1280 H   0  0  0  0  0  0  0  0  0  0  0  0
  1  2  1  0
  2  3  1  0
  3  4  1  0
  4  5  1  0
  5  6  1  0
  6  7  1  0
  7  8  1  0
  8  9  1  0
  9 10  1  0
 10 11  2  0
 11 12  1  0
 12 13  2  0
 13 14  1  0
 14 15  2  0
 15 16  1  0
 16 17  2  0
 17 18  1  0
 18 19  1  0
 19 20  1  0
 20 21  1  0
 21 22  1  0
 22 23  1  0
 23 24  1  0
 24 25  1  0
 25 26  1  0
 26 27  1  0
 27 28  1  0
 19 29  2  0
 29 30  1  0
 30 31  2  0
 31 32  1  0
 32 33  1  0
 33 34  2  0
 34 35  1  0
 35 36  2  0
 36 37  1  0
 31 38  1  0
 36 10  1  0
 37 13  1  0
 38 14  1  0
 38 18  2  0
 37 32  2  0
  1 39  1  0
  1 40  1  0
  1 41  1  0
  2 42  1  0
  2 43  1  0
  3 44  1  0
  3 45  1  0
  4 46  1  0
  4 47  1  0
  5 48  1  0
  5 49  1  0
  6 50  1  0
  6 51  1  0
  7 52  1  0
  7 53  1  0
  8 54  1  0
  8 55  1  0
 11 56  1  0
 12 57  1  0
 15 58  1  0
 16 59  1  0
 17 60  1  0
 21 61  1  0
 21 62  1  0
 22 63  1  0
 22 64  1  0
 23 65  1  0
 23 66  1  0
 24 67  1  0
 24 68  1  0
 25 69  1  0
 25 70  1  0
 26 71  1  0
 26 72  1  0
 27 73  1  0
 27 74  1  0
 28 75  1  0
 28 76  1  0
 28 77  1  0
 29 78  1  0
 30 79  1  0
 33 80  1  0
 34 81  1  0
 35 82  1  0
M  END
