
     RDKit          3D

 62 65  0  0  0  0  0  0  0  0999 V2000
   -8.1232    2.1458   -0.3546 C   0  0  0  0  0  0  0  0  0  0  0  0
   -6.9706    3.0703   -0.4240 C   0  0  0  0  0  0  0  0  0  0  0  0
   -7.1567    4.2973   -0.6066 O   0  0  0  0  0  0  0  0  0  0  0  0
   -5.6210    2.5489   -0.2789 C   0  0  0  0  0  0  0  0  0  0  0  0
   -4.5180    3.3753   -0.3384 C   0  0  0  0  0  0  0  0  0  0  0  0
   -3.2360    2.9306   -0.2087 C   0  0  0  0  0  0  0  0  0  0  0  0
   -3.0335    1.5951   -0.0092 N   0  0  0  0  0  0  0  0  0  0  0  0
   -1.8840    0.8950    0.1491 C   0  0  0  0  0  0  0  0  0  0  0  0
   -2.2079   -0.4254    0.3194 C   0  0  0  0  0  0  0  0  0  0  0  0
   -3.5887   -0.5171    0.2607 C   0  0  0  0  0  0  0  0  0  0  0  0
   -4.4095   -1.7109    0.3851 C   0  0  0  0  0  0  0  0  0  0  0  0
   -4.7186   -2.2428    1.6128 C   0  0  0  0  0  0  0  0  0  0  0  0
   -5.5116   -3.3923    1.7109 C   0  0  0  0  0  0  0  0  0  0  0  0
   -5.9906   -4.0027    0.5763 C   0  0  0  0  0  0  0  0  0  0  0  0
   -6.7680   -5.1281    0.6708 F   0  0  0  0  0  0  0  0  0  0  0  0
   -5.6827   -3.4716   -0.6642 C   0  0  0  0  0  0  0  0  0  0  0  0
   -4.8917   -2.3262   -0.7422 C   0  0  0  0  0  0  0  0  0  0  0  0
   -4.0729    0.7556    0.0555 C   0  0  0  0  0  0  0  0  0  0  0  0
   -5.3891    1.2100   -0.0773 C   0  0  0  0  0  0  0  0  0  0  0  0
   -0.9920   -1.2229    0.4991 C   0  0  0  0  0  0  0  0  0  0  0  0
    0.0870   -0.2863    0.4082 N   0  0  0  0  0  0  0  0  0  0  0  0
    1.4970   -0.6060    0.5062 C   0  0  0  0  0  0  0  0  0  0  0  0
    1.9615   -0.9070   -0.8985 C   0  0  0  0  0  0  0  0  0  0  0  0
    3.4219   -1.2586   -0.9630 C   0  0  0  0  0  0  0  0  0  0  0  0
    4.1845   -0.1379   -0.4636 N   0  0  0  0  0  0  0  0  0  0  0  0
    5.6196   -0.1697   -0.4047 C   0  0  0  0  0  0  0  0  0  0  0  0
    6.2012   -1.2045   -0.8019 O   0  0  0  0  0  0  0  0  0  0  0  0
    6.3917    0.8629    0.0594 O   0  0  0  0  0  0  0  0  0  0  0  0
    7.7857    0.7649    0.0890 C   0  0  0  0  0  0  0  0  0  0  0  0
    8.4363    2.0295    0.6324 C   0  0  0  0  0  0  0  0  0  0  0  0
    8.3874    0.4978   -1.2723 C   0  0  0  0  0  0  0  0  0  0  0  0
    8.1706   -0.3733    0.9960 C   0  0  0  0  0  0  0  0  0  0  0  0
   -0.4319    1.0030    0.2031 C   0  0  0  0  0  0  0  0  0  0  0  0
    0.2169    2.0635    0.0858 O   0  0  0  0  0  0  0  0  0  0  0  0
   -8.1760    1.6473    0.6240 H   0  0  0  0  0  0  0  0  0  0  0  0
   -9.0800    2.6888   -0.4998 H   0  0  0  0  0  0  0  0  0  0  0  0
   -8.0832    1.3818   -1.1816 H   0  0  0  0  0  0  0  0  0  0  0  0
   -4.7144    4.4346   -0.4976 H   0  0  0  0  0  0  0  0  0  0  0  0
   -2.3681    3.5607   -0.2528 H   0  0  0  0  0  0  0  0  0  0  0  0
   -4.3421   -1.7626    2.4871 H   0  0  0  0  0  0  0  0  0  0  0  0
   -5.7625   -3.8214    2.6658 H   0  0  0  0  0  0  0  0  0  0  0  0
   -6.0788   -3.9837   -1.5278 H   0  0  0  0  0  0  0  0  0  0  0  0
   -4.6804   -1.9514   -1.7427 H   0  0  0  0  0  0  0  0  0  0  0  0
   -6.1975    0.5086   -0.0195 H   0  0  0  0  0  0  0  0  0  0  0  0
   -0.9702   -1.7520    1.4792 H   0  0  0  0  0  0  0  0  0  0  0  0
   -0.9504   -1.9955   -0.3175 H   0  0  0  0  0  0  0  0  0  0  0  0
    2.0638    0.2092    0.9615 H   0  0  0  0  0  0  0  0  0  0  0  0
    1.5871   -1.4782    1.1883 H   0  0  0  0  0  0  0  0  0  0  0  0
    1.7247   -0.0075   -1.5058 H   0  0  0  0  0  0  0  0  0  0  0  0
    1.3194   -1.7176   -1.3303 H   0  0  0  0  0  0  0  0  0  0  0  0
    3.6252   -2.1387   -0.3163 H   0  0  0  0  0  0  0  0  0  0  0  0
    3.7173   -1.5522   -1.9819 H   0  0  0  0  0  0  0  0  0  0  0  0
    3.7045    0.7130   -0.1378 H   0  0  0  0  0  0  0  0  0  0  0  0
    8.3186    2.8898   -0.0528 H   0  0  0  0  0  0  0  0  0  0  0  0
    9.5348    1.8108    0.6651 H   0  0  0  0  0  0  0  0  0  0  0  0
    8.1261    2.2347    1.6706 H   0  0  0  0  0  0  0  0  0  0  0  0
    9.4567    0.7936   -1.2168 H   0  0  0  0  0  0  0  0  0  0  0  0
    8.3591   -0.5793   -1.4752 H   0  0  0  0  0  0  0  0  0  0  0  0
    7.9317    1.1092   -2.0716 H   0  0  0  0  0  0  0  0  0  0  0  0
    8.9203   -1.0343    0.5062 H   0  0  0  0  0  0  0  0  0  0  0  0
    7.2512   -0.9454    1.2513 H   0  0  0  0  0  0  0  0  0  0  0  0
    8.6002    0.0757    1.9366 H   0  0  0  0  0  0  0  0  0  0  0  0
  1  2  1  0
  2  3  2  0
  2  4  1  0
  4  5  1  0
  5  6  2  0
  6  7  1  0
  7  8  1  0
  8  9  2  0
  9 10  1  0
 10 11  1  0
 11 12  2  0
 12 13  1  0
 13 14  2  0
 14 15  1  0
 14 16  1  0
 16 17  2  0
 10 18  2  0
 18 19  1  0
  9 20  1  0
 20 21  1  0
 21 22  1  0
 22 23  1  0
 23 24  1  0
 24 25  1  0
 25 26  1  0
 26 27  2  0
 26 28  1  0
 28 29  1  0
 29 30  1  0
 29 31  1  0
 29 32  1  0
 21 33  1  0
 33 34  2  0
 19  4  2  0
 18  7  1  0
 33  8  1  0
 17 11  1  0
  1 35  1  0
  1 36  1  0
  1 37  1  0
  5 38  1  0
  6 39  1  0
 12 40  1  0
 13 41  1  0
 16 42  1  0
 17 43  1  0
 19 44  1  0
 20 45  1  0
 20 46  1  0
 22 47  1  0
 22 48  1  0
 23 49  1  0
 23 50  1  0
 24 51  1  0
 24 52  1  0
 25 53  1  0
 30 54  1  0
 30 55  1  0
 30 56  1  0
 31 57  1  0
 31 58  1  0
 31 59  1  0
 32 60  1  0
 32 61  1  0
 32 62  1  0
M  END
