
     RDKit          3D

 50 53  0  0  0  0  0  0  0  0999 V2000
    3.5951   -3.2918    1.4101 C   0  0  0  0  0  0  0  0  0  0  0  0
    3.6242   -1.9721    0.9040 O   0  0  0  0  0  0  0  0  0  0  0  0
    2.3848   -1.3636    0.6487 C   0  0  0  0  0  0  0  0  0  0  0  0
    1.1998   -2.0139    0.8776 C   0  0  0  0  0  0  0  0  0  0  0  0
    0.0093   -1.3930    0.6185 C   0  0  0  0  0  0  0  0  0  0  0  0
   -1.2200   -1.9924    0.8271 C   0  0  0  0  0  0  0  0  0  0  0  0
   -2.3972   -1.3292    0.5518 C   0  0  0  0  0  0  0  0  0  0  0  0
   -3.6145   -1.9156    0.7556 O   0  0  0  0  0  0  0  0  0  0  0  0
   -3.8654   -3.1948    1.2424 C   0  0  0  0  0  0  0  0  0  0  0  0
   -2.3547   -0.0447    0.0593 C   0  0  0  0  0  0  0  0  0  0  0  0
   -3.6091    0.6276   -0.2214 C   0  0  0  0  0  0  0  0  0  0  0  0
   -4.6303   -0.0129   -0.8874 C   0  0  0  0  0  0  0  0  0  0  0  0
   -5.8348    0.5997   -1.1689 C   0  0  0  0  0  0  0  0  0  0  0  0
   -6.0359    1.9142   -0.7691 C   0  0  0  0  0  0  0  0  0  0  0  0
   -7.2722    2.5542   -1.0540 N   0  0  0  0  0  4  0  0  0  0  0  0
   -7.4261    3.7267   -0.6868 O   0  0  0  0  0  0  0  0  0  0  0  0
   -8.2633    1.8553   -1.7289 O   0  0  0  0  0  1  0  0  0  0  0  0
   -5.0316    2.5746   -0.1028 C   0  0  0  0  0  0  0  0  0  0  0  0
   -3.8321    1.9300    0.1647 C   0  0  0  0  0  0  0  0  0  0  0  0
   -1.1464    0.5954   -0.1652 C   0  0  0  0  0  0  0  0  0  0  0  0
    0.0257   -0.0939    0.1200 C   0  0  0  0  0  0  0  0  0  0  0  0
    1.2286    0.5573   -0.1090 C   0  0  0  0  0  0  0  0  0  0  0  0
    2.4233   -0.0743    0.1544 C   0  0  0  0  0  0  0  0  0  0  0  0
    3.6862    0.6086   -0.0858 C   0  0  0  0  0  0  0  0  0  0  0  0
    4.7092    0.5668    0.8465 C   0  0  0  0  0  0  0  0  0  0  0  0
    5.9105    1.2136    0.6236 C   0  0  0  0  0  0  0  0  0  0  0  0
    6.1369    1.9247   -0.5339 C   0  0  0  0  0  0  0  0  0  0  0  0
    7.3823    2.6008   -0.7752 N   0  0  0  0  0  4  0  0  0  0  0  0
    7.5240    3.2227   -1.8333 O   0  0  0  0  0  0  0  0  0  0  0  0
    8.4073    2.5838    0.1109 O   0  0  0  0  0  1  0  0  0  0  0  0
    5.1213    1.9689   -1.4645 C   0  0  0  0  0  0  0  0  0  0  0  0
    3.9200    1.3225   -1.2425 C   0  0  0  0  0  0  0  0  0  0  0  0
    3.0847   -3.9087    0.6233 H   0  0  0  0  0  0  0  0  0  0  0  0
    4.5903   -3.6728    1.6567 H   0  0  0  0  0  0  0  0  0  0  0  0
    2.9327   -3.2963    2.2945 H   0  0  0  0  0  0  0  0  0  0  0  0
    1.1882   -3.0243    1.2654 H   0  0  0  0  0  0  0  0  0  0  0  0
   -1.2465   -3.0014    1.2141 H   0  0  0  0  0  0  0  0  0  0  0  0
   -4.8119   -3.6178    0.8274 H   0  0  0  0  0  0  0  0  0  0  0  0
   -3.0609   -3.8740    0.8917 H   0  0  0  0  0  0  0  0  0  0  0  0
   -3.8670   -3.2618    2.3555 H   0  0  0  0  0  0  0  0  0  0  0  0
   -4.5116   -1.0383   -1.2155 H   0  0  0  0  0  0  0  0  0  0  0  0
   -6.6524    0.1244   -1.6883 H   0  0  0  0  0  0  0  0  0  0  0  0
   -5.1584    3.5963    0.2203 H   0  0  0  0  0  0  0  0  0  0  0  0
   -3.0389    2.4420    0.6875 H   0  0  0  0  0  0  0  0  0  0  0  0
   -1.1330    1.6099   -0.5545 H   0  0  0  0  0  0  0  0  0  0  0  0
    1.2294    1.5801   -0.5016 H   0  0  0  0  0  0  0  0  0  0  0  0
    4.5553    0.0148    1.7630 H   0  0  0  0  0  0  0  0  0  0  0  0
    6.7285    1.1895    1.3512 H   0  0  0  0  0  0  0  0  0  0  0  0
    5.2998    2.5291   -2.3763 H   0  0  0  0  0  0  0  0  0  0  0  0
    3.1167    1.3542   -1.9723 H   0  0  0  0  0  0  0  0  0  0  0  0
  1  2  1  0
  2  3  1  0
  3  4  2  0
  4  5  1  0
  5  6  2  0
  6  7  1  0
  7  8  1  0
  8  9  1  0
  7 10  2  0
 10 11  1  0
 11 12  2  0
 12 13  1  0
 13 14  2  0
 14 15  1  0
 15 16  2  0
 15 17  1  0
 14 18  1  0
 18 19  2  0
 10 20  1  0
 20 21  2  0
 21 22  1  0
 22 23  2  0
 23 24  1  0
 24 25  2  0
 25 26  1  0
 26 27  2  0
 27 28  1  0
 28 29  2  0
 28 30  1  0
 27 31  1  0
 31 32  2  0
 23  3  1  0
 32 24  1  0
 21  5  1  0
 19 11  1  0
  1 33  1  0
  1 34  1  0
  1 35  1  0
  4 36  1  0
  6 37  1  0
  9 38  1  0
  9 39  1  0
  9 40  1  0
 12 41  1  0
 13 42  1  0
 18 43  1  0
 19 44  1  0
 20 45  1  0
 22 46  1  0
 25 47  1  0
 26 48  1  0
 31 49  1  0
 32 50  1  0
M  CHG  4  15   1  17  -1  28   1  30  -1
M  END
