
     RDKit          3D

 74 78  0  0  0  0  0  0  0  0999 V2000
   -5.1637   -3.2372   -2.1243 C   0  0  0  0  0  0  0  0  0  0  0  0
   -5.1433   -3.6982   -0.6512 C   0  0  0  0  0  0  0  0  0  0  0  0
   -4.7852   -5.1235   -0.5723 C   0  0  0  0  0  0  0  0  0  0  0  0
   -6.3982   -3.2666   -0.0016 C   0  0  0  0  0  0  0  0  0  0  0  0
   -4.0092   -2.8229   -0.1057 C   0  0  0  0  0  0  0  0  0  0  0  0
   -2.7381   -3.3760   -0.1448 C   0  0  0  0  0  0  0  0  0  0  0  0
   -1.7321   -2.4553    0.0015 C   0  0  0  0  0  0  0  0  0  0  0  0
   -1.9696   -1.0580    0.2001 C   0  0  0  0  0  0  0  0  0  0  0  0
   -3.2598   -0.6150    0.2503 C   0  0  0  0  0  0  0  0  0  0  0  0
   -4.3079   -1.5242    0.0853 C   0  0  0  0  0  0  0  0  0  0  0  0
   -3.1349    0.7781    0.3867 C   0  0  0  0  0  0  0  0  0  0  0  0
   -4.0818    1.7958    0.5040 C   0  0  0  0  0  0  0  0  0  0  0  0
   -3.6413    3.0476    0.6098 C   0  0  0  0  0  0  0  0  0  0  0  0
   -4.6146    4.2106    0.7114 C   0  0  0  0  0  0  0  0  0  0  0  0
   -6.0045    3.7429    0.5411 C   0  0  0  0  0  0  0  0  0  0  0  0
   -4.3293    5.2693   -0.3145 C   0  0  0  0  0  0  0  0  0  0  0  0
   -4.3789    4.8040    2.1242 C   0  0  0  0  0  0  0  0  0  0  0  0
   -2.3361    3.3399    0.5982 C   0  0  0  0  0  0  0  0  0  0  0  0
   -1.3086    2.3763    0.5005 C   0  0  0  0  0  0  0  0  0  0  0  0
   -1.8495    1.0953    0.3890 C   0  0  0  0  0  0  0  0  0  0  0  0
   -1.1157   -0.0712    0.2667 N   0  0  0  0  0  0  0  0  0  0  0  0
    0.2892   -0.2277    0.0123 C   0  0  0  0  0  0  0  0  0  0  0  0
    0.7163   -0.1698   -1.3971 C   0  0  0  0  0  0  0  0  0  0  0  0
    2.0496   -0.4436   -1.4679 C   0  0  0  0  0  0  0  0  0  0  0  0
    2.8810   -0.7112   -0.5517 C   0  0  0  0  0  0  0  0  0  0  0  0
    4.2573   -0.9722   -0.4853 C   0  0  0  0  0  0  0  0  0  0  0  0
    5.5227   -1.2145   -0.4202 C   0  0  0  0  0  0  0  0  0  0  0  0
    6.9792   -1.4928   -0.3260 C   0  0  0  0  0  0  0  0  0  0  0  0
    7.3189   -1.8374    0.9647 C   0  0  0  0  0  0  0  0  0  0  0  0
    8.4759   -1.3193    1.5021 C   0  0  0  0  0  0  0  0  0  0  0  0
    9.1896   -0.4738    0.6826 C   0  0  0  0  0  0  0  0  0  0  0  0
   10.0533    0.6081    1.3493 C   0  0  0  0  0  0  0  0  0  0  0  0
   11.2433    0.7432    1.0007 C   0  0  0  0  0  0  0  0  0  0  0  0
   12.1174    1.7592    1.4848 C   0  0  0  0  0  0  0  0  0  0  0  0
   12.9528    2.7416    1.9647 N   0  0  0  0  0  0  0  0  0  0  0  0
   11.9276   -0.0249    0.1230 C   0  0  0  0  0  0  0  0  0  0  0  0
   12.6550   -0.8163   -0.8128 N   0  0  0  0  0  0  0  0  0  0  0  0
    8.8665   -0.1611   -0.6083 C   0  0  0  0  0  0  0  0  0  0  0  0
    7.6945   -0.7025   -1.1365 C   0  0  0  0  0  0  0  0  0  0  0  0
    2.4116   -0.7797    0.9313 C   0  0  0  0  0  0  0  0  0  0  0  0
    1.0446   -0.4954    1.0387 C   0  0  0  0  0  0  0  0  0  0  0  0
   -6.1302   -3.4237   -2.6210 H   0  0  0  0  0  0  0  0  0  0  0  0
   -4.3333   -3.6877   -2.6812 H   0  0  0  0  0  0  0  0  0  0  0  0
   -4.9540   -2.1296   -2.1189 H   0  0  0  0  0  0  0  0  0  0  0  0
   -3.9876   -5.3240   -1.3337 H   0  0  0  0  0  0  0  0  0  0  0  0
   -5.6629   -5.7192   -0.9437 H   0  0  0  0  0  0  0  0  0  0  0  0
   -4.5375   -5.4809    0.4232 H   0  0  0  0  0  0  0  0  0  0  0  0
   -6.8673   -2.4113   -0.5457 H   0  0  0  0  0  0  0  0  0  0  0  0
   -7.0838   -4.1002    0.0807 H   0  0  0  0  0  0  0  0  0  0  0  0
   -6.2036   -2.8889    1.0154 H   0  0  0  0  0  0  0  0  0  0  0  0
   -2.5638   -4.4432   -0.2714 H   0  0  0  0  0  0  0  0  0  0  0  0
   -0.7098   -2.8191    0.0061 H   0  0  0  0  0  0  0  0  0  0  0  0
   -5.2707   -1.1491    0.1577 H   0  0  0  0  0  0  0  0  0  0  0  0
   -5.1200    1.5685    0.4562 H   0  0  0  0  0  0  0  0  0  0  0  0
   -6.2046    3.4083   -0.4579 H   0  0  0  0  0  0  0  0  0  0  0  0
   -6.6537    4.6203    0.7773 H   0  0  0  0  0  0  0  0  0  0  0  0
   -6.2240    2.9777    1.3280 H   0  0  0  0  0  0  0  0  0  0  0  0
   -3.5800    6.0031    0.0083 H   0  0  0  0  0  0  0  0  0  0  0  0
   -5.2542    5.8327   -0.4234 H   0  0  0  0  0  0  0  0  0  0  0  0
   -4.0333    4.8638   -1.2906 H   0  0  0  0  0  0  0  0  0  0  0  0
   -5.1937    5.4174    2.4582 H   0  0  0  0  0  0  0  0  0  0  0  0
   -4.1454    3.9475    2.8136 H   0  0  0  0  0  0  0  0  0  0  0  0
   -3.4487    5.4158    2.1258 H   0  0  0  0  0  0  0  0  0  0  0  0
   -1.9512    4.4457    0.7286 H   0  0  0  0  0  0  0  0  0  0  0  0
   -0.3239    2.6218    0.5115 H   0  0  0  0  0  0  0  0  0  0  0  0
    0.0555    0.0600   -2.1478 H   0  0  0  0  0  0  0  0  0  0  0  0
    2.4653   -0.4608   -2.5503 H   0  0  0  0  0  0  0  0  0  0  0  0
    6.6713   -2.4671    1.5134 H   0  0  0  0  0  0  0  0  0  0  0  0
    8.7439   -1.6015    2.5282 H   0  0  0  0  0  0  0  0  0  0  0  0
    9.5082    1.2755    2.0668 H   0  0  0  0  0  0  0  0  0  0  0  0
    9.5293    0.4482   -1.1640 H   0  0  0  0  0  0  0  0  0  0  0  0
    7.3711   -0.5153   -2.1086 H   0  0  0  0  0  0  0  0  0  0  0  0
    3.0736   -0.9915    1.6642 H   0  0  0  0  0  0  0  0  0  0  0  0
    0.6751   -0.5152    2.0707 H   0  0  0  0  0  0  0  0  0  0  0  0
  1  2  1  0
  2  3  1  0
  2  4  1  0
  2  5  1  0
  5  6  2  0
  6  7  1  0
  7  8  2  0
  8  9  1  0
  9 10  2  0
  9 11  1  0
 11 12  2  0
 12 13  1  0
 13 14  1  0
 14 15  1  0
 14 16  1  0
 14 17  1  0
 13 18  2  0
 18 19  1  0
 19 20  2  0
 20 21  1  0
 21 22  1  0
 22 23  2  0
 23 24  1  0
 24 25  2  0
 25 26  1  0
 26 27  3  0
 27 28  1  0
 28 29  2  0
 29 30  1  0
 30 31  2  0
 31 32  1  0
 32 33  2  3
 33 34  1  0
 34 35  3  0
 33 36  1  0
 36 37  3  0
 31 38  1  0
 38 39  2  0
 25 40  1  0
 40 41  2  0
 10  5  1  0
 20 11  1  0
 41 22  1  0
 21  8  1  0
 39 28  1  0
  1 42  1  0
  1 43  1  0
  1 44  1  0
  3 45  1  0
  3 46  1  0
  3 47  1  0
  4 48  1  0
  4 49  1  0
  4 50  1  0
  6 51  1  0
  7 52  1  0
 10 53  1  0
 12 54  1  0
 15 55  1  0
 15 56  1  0
 15 57  1  0
 16 58  1  0
 16 59  1  0
 16 60  1  0
 17 61  1  0
 17 62  1  0
 17 63  1  0
 18 64  1  0
 19 65  1  0
 23 66  1  0
 24 67  1  0
 29 68  1  0
 30 69  1  0
 32 70  1  0
 38 71  1  0
 39 72  1  0
 40 73  1  0
 41 74  1  0
M  END
