
     RDKit          3D

 85 87  0  0  0  0  0  0  0  0999 V2000
   11.0457   -2.7693    1.0874 C   0  0  0  0  0  0  0  0  0  0  0  0
   10.1827   -1.8716    0.1960 C   0  0  0  0  0  0  0  0  0  0  0  0
    8.9767   -2.7066   -0.2240 C   0  0  0  0  0  0  0  0  0  0  0  0
    8.0500   -1.9350   -1.1174 C   0  0  0  0  0  0  0  0  0  0  0  0
    7.5010   -0.6933   -0.5162 C   0  0  0  0  0  0  0  0  0  0  0  0
    6.7041   -0.9116    0.7190 C   0  0  0  0  0  0  0  0  0  0  0  0
    5.5326   -1.7867    0.5912 C   0  0  0  0  0  0  0  0  0  0  0  0
    4.4567   -1.5302   -0.3568 C   0  0  0  0  0  0  0  0  0  0  0  0
    3.6580   -0.2802   -0.2723 C   0  0  0  0  0  0  0  0  0  0  0  0
    4.3356    1.0134   -0.4765 C   0  0  0  0  0  0  0  0  0  0  0  0
    3.3801    2.2127   -0.3775 C   0  0  0  0  0  0  0  0  0  0  0  0
    2.3267    2.1131   -1.4213 C   0  0  0  0  0  0  0  0  0  0  0  0
    1.3933    3.3230   -1.3346 C   0  0  0  0  0  0  0  0  0  0  0  0
    0.7047    3.4244   -0.0099 C   0  0  0  0  0  0  0  0  0  0  0  0
   -0.2336    4.5797    0.0865 C   0  0  0  0  0  0  0  0  0  0  0  0
   -1.3697    4.6393   -0.8412 C   0  0  0  0  0  0  0  0  0  0  0  0
   -2.3028    3.6604   -0.7494 O   0  0  0  0  0  0  0  0  0  0  0  0
   -2.3663    2.3607   -0.9947 C   0  0  0  0  0  0  0  0  0  0  0  0
   -1.3987    1.7334   -1.4425 O   0  0  0  0  0  0  0  0  0  0  0  0
   -3.5991    1.6177   -0.7401 C   0  0  0  0  0  0  0  0  0  0  0  0
   -4.7258    2.2285   -0.2495 C   0  0  0  0  0  0  0  0  0  0  0  0
   -5.9234    1.5304    0.0030 C   0  0  0  0  0  0  0  0  0  0  0  0
   -6.0084    0.1986   -0.2340 C   0  0  0  0  0  0  0  0  0  0  0  0
   -7.1377   -0.6322   -0.0144 N   0  0  0  0  0  0  0  0  0  0  0  0
   -6.8159   -1.8848    0.6046 C   0  0  0  0  0  0  0  0  0  0  0  0
   -7.2532   -3.1146    0.2578 C   0  0  0  0  0  0  0  0  0  0  0  0
   -6.8728   -4.2792    0.9558 C   0  0  0  0  0  0  0  0  0  0  0  0
   -6.0290   -4.2163    2.0343 C   0  0  0  0  0  0  0  0  0  0  0  0
   -5.5802   -2.9651    2.3917 C   0  0  0  0  0  0  0  0  0  0  0  0
   -5.9453   -1.8274    1.7183 C   0  0  0  0  0  0  0  0  0  0  0  0
   -8.4649   -0.2349   -0.1991 C   0  0  0  0  0  0  0  0  0  0  0  0
   -9.3153   -0.9582   -1.0389 C   0  0  0  0  0  0  0  0  0  0  0  0
  -10.6491   -0.6523   -1.1165 C   0  0  0  0  0  0  0  0  0  0  0  0
  -11.2368    0.3625   -0.3961 C   0  0  0  0  0  0  0  0  0  0  0  0
  -10.3925    1.0695    0.4268 C   0  0  0  0  0  0  0  0  0  0  0  0
   -9.0530    0.7898    0.5313 C   0  0  0  0  0  0  0  0  0  0  0  0
   -4.8426   -0.4256   -0.7404 C   0  0  0  0  0  0  0  0  0  0  0  0
   -3.6899    0.2632   -0.9805 C   0  0  0  0  0  0  0  0  0  0  0  0
   10.9779   -3.7875    0.6526 H   0  0  0  0  0  0  0  0  0  0  0  0
   10.6212   -2.7837    2.0991 H   0  0  0  0  0  0  0  0  0  0  0  0
   12.0975   -2.4374    1.0491 H   0  0  0  0  0  0  0  0  0  0  0  0
    9.8825   -0.9736    0.7539 H   0  0  0  0  0  0  0  0  0  0  0  0
   10.7814   -1.6445   -0.7010 H   0  0  0  0  0  0  0  0  0  0  0  0
    9.3365   -3.6445   -0.7232 H   0  0  0  0  0  0  0  0  0  0  0  0
    8.4375   -3.0039    0.6922 H   0  0  0  0  0  0  0  0  0  0  0  0
    7.2146   -2.6591   -1.3709 H   0  0  0  0  0  0  0  0  0  0  0  0
    8.6085   -1.7413   -2.0696 H   0  0  0  0  0  0  0  0  0  0  0  0
    8.3849   -0.0530   -0.2149 H   0  0  0  0  0  0  0  0  0  0  0  0
    6.9801   -0.0426   -1.2629 H   0  0  0  0  0  0  0  0  0  0  0  0
    7.4364   -1.4899    1.4146 H   0  0  0  0  0  0  0  0  0  0  0  0
    6.5910    0.0244    1.3008 H   0  0  0  0  0  0  0  0  0  0  0  0
    5.0484   -1.8069    1.6333 H   0  0  0  0  0  0  0  0  0  0  0  0
    5.8867   -2.8770    0.5274 H   0  0  0  0  0  0  0  0  0  0  0  0
    4.7474   -1.7536   -1.4338 H   0  0  0  0  0  0  0  0  0  0  0  0
    3.6822   -2.3666   -0.1890 H   0  0  0  0  0  0  0  0  0  0  0  0
    3.1756   -0.2830    0.7570 H   0  0  0  0  0  0  0  0  0  0  0  0
    2.8107   -0.3332   -1.0102 H   0  0  0  0  0  0  0  0  0  0  0  0
    5.1420    1.2437    0.2108 H   0  0  0  0  0  0  0  0  0  0  0  0
    4.8005    1.0638   -1.5063 H   0  0  0  0  0  0  0  0  0  0  0  0
    3.9803    3.1068   -0.5379 H   0  0  0  0  0  0  0  0  0  0  0  0
    2.9754    2.2003    0.6630 H   0  0  0  0  0  0  0  0  0  0  0  0
    2.7859    2.0900   -2.4111 H   0  0  0  0  0  0  0  0  0  0  0  0
    1.6617    1.2285   -1.3311 H   0  0  0  0  0  0  0  0  0  0  0  0
    0.6633    3.2325   -2.1462 H   0  0  0  0  0  0  0  0  0  0  0  0
    1.9697    4.2593   -1.5470 H   0  0  0  0  0  0  0  0  0  0  0  0
    1.5579    3.6376    0.7297 H   0  0  0  0  0  0  0  0  0  0  0  0
    0.2292    2.5111    0.3624 H   0  0  0  0  0  0  0  0  0  0  0  0
   -0.6708    4.5277    1.1340 H   0  0  0  0  0  0  0  0  0  0  0  0
    0.3434    5.5572    0.1152 H   0  0  0  0  0  0  0  0  0  0  0  0
   -1.8339    5.6814   -0.7259 H   0  0  0  0  0  0  0  0  0  0  0  0
   -0.9644    4.6698   -1.9335 H   0  0  0  0  0  0  0  0  0  0  0  0
   -4.7363    3.2908   -0.0342 H   0  0  0  0  0  0  0  0  0  0  0  0
   -6.7681    2.0787    0.3722 H   0  0  0  0  0  0  0  0  0  0  0  0
   -7.9076   -3.2276   -0.5797 H   0  0  0  0  0  0  0  0  0  0  0  0
   -7.2634   -5.2276    0.6192 H   0  0  0  0  0  0  0  0  0  0  0  0
   -5.7110   -5.0799    2.5985 H   0  0  0  0  0  0  0  0  0  0  0  0
   -4.9028   -2.9046    3.2560 H   0  0  0  0  0  0  0  0  0  0  0  0
   -5.5900   -0.8440    2.0020 H   0  0  0  0  0  0  0  0  0  0  0  0
   -8.9062   -1.7575   -1.6873 H   0  0  0  0  0  0  0  0  0  0  0  0
  -11.2924   -1.2420   -1.7862 H   0  0  0  0  0  0  0  0  0  0  0  0
  -12.2921    0.5745   -0.4840 H   0  0  0  0  0  0  0  0  0  0  0  0
  -10.8545    1.8854    1.0078 H   0  0  0  0  0  0  0  0  0  0  0  0
   -8.4711    1.3585    1.2393 H   0  0  0  0  0  0  0  0  0  0  0  0
   -4.8986   -1.4877   -0.9335 H   0  0  0  0  0  0  0  0  0  0  0  0
   -2.7888   -0.2150   -1.3713 H   0  0  0  0  0  0  0  0  0  0  0  0
  1  2  1  0
  2  3  1  0
  3  4  1  0
  4  5  1  0
  5  6  1  0
  6  7  1  0
  7  8  1  0
  8  9  1  0
  9 10  1  0
 10 11  1  0
 11 12  1  0
 12 13  1  0
 13 14  1  0
 14 15  1  0
 15 16  1  0
 16 17  1  0
 17 18  1  0
 18 19  2  0
 18 20  1  0
 20 21  2  0
 21 22  1  0
 22 23  2  0
 23 24  1  0
 24 25  1  0
 25 26  2  0
 26 27  1  0
 27 28  2  0
 28 29  1  0
 29 30  2  0
 24 31  1  0
 31 32  2  0
 32 33  1  0
 33 34  2  0
 34 35  1  0
 35 36  2  0
 23 37  1  0
 37 38  2  0
 38 20  1  0
 30 25  1  0
 36 31  1  0
  1 39  1  0
  1 40  1  0
  1 41  1  0
  2 42  1  0
  2 43  1  0
  3 44  1  0
  3 45  1  0
  4 46  1  0
  4 47  1  0
  5 48  1  0
  5 49  1  0
  6 50  1  0
  6 51  1  0
  7 52  1  0
  7 53  1  0
  8 54  1  0
  8 55  1  0
  9 56  1  0
  9 57  1  0
 10 58  1  0
 10 59  1  0
 11 60  1  0
 11 61  1  0
 12 62  1  0
 12 63  1  0
 13 64  1  0
 13 65  1  0
 14 66  1  0
 14 67  1  0
 15 68  1  0
 15 69  1  0
 16 70  1  0
 16 71  1  0
 21 72  1  0
 22 73  1  0
 26 74  1  0
 27 75  1  0
 28 76  1  0
 29 77  1  0
 30 78  1  0
 32 79  1  0
 33 80  1  0
 34 81  1  0
 35 82  1  0
 36 83  1  0
 37 84  1  0
 38 85  1  0
M  END
