
     RDKit          3D

 38 41  0  0  0  0  0  0  0  0999 V2000
   -6.0825    1.9292    0.5630 C   0  0  0  0  0  0  0  0  0  0  0  0
   -4.7428    1.4866    0.4512 O   0  0  0  0  0  0  0  0  0  0  0  0
   -4.4673    0.1190    0.3901 C   0  0  0  0  0  0  0  0  0  0  0  0
   -5.4810   -0.8160    0.4369 C   0  0  0  0  0  0  0  0  0  0  0  0
   -5.2076   -2.1723    0.3763 C   0  0  0  0  0  0  0  0  0  0  0  0
   -3.8823   -2.5391    0.2678 C   0  0  0  0  0  0  0  0  0  0  0  0
   -2.8589   -1.6153    0.2200 C   0  0  0  0  0  0  0  0  0  0  0  0
   -1.4763   -1.6635    0.1167 C   0  0  0  0  0  0  0  0  0  0  0  0
   -0.9794   -0.3762    0.1185 C   0  0  0  0  0  0  0  0  0  0  0  0
    0.4401   -0.0325    0.0243 C   0  0  0  0  0  0  0  0  0  0  0  0
    1.4116   -1.0064   -0.0763 C   0  0  0  0  0  0  0  0  0  0  0  0
    2.7526   -0.7076   -0.1662 C   0  0  0  0  0  0  0  0  0  0  0  0
    3.7435   -1.6579   -0.2675 C   0  0  0  0  0  0  0  0  0  0  0  0
    5.0771   -1.3246   -0.3557 C   0  0  0  0  0  0  0  0  0  0  0  0
    5.3967    0.0213   -0.3391 C   0  0  0  0  0  0  0  0  0  0  0  0
    4.4291    0.9875   -0.2391 C   0  0  0  0  0  0  0  0  0  0  0  0
    4.7883    2.3129   -0.2260 O   0  0  0  0  0  0  0  0  0  0  0  0
    6.1411    2.6838   -0.3146 C   0  0  0  0  0  0  0  0  0  0  0  0
    3.1010    0.6497   -0.1514 C   0  0  0  0  0  0  0  0  0  0  0  0
    2.1803    1.5758   -0.0560 O   0  0  0  0  0  0  0  0  0  0  0  0
    0.8850    1.2727    0.0304 C   0  0  0  0  0  0  0  0  0  0  0  0
    0.0109    2.1715    0.1216 O   0  0  0  0  0  0  0  0  0  0  0  0
   -2.0038    0.4159    0.2176 O   0  0  0  0  0  0  0  0  0  0  0  0
   -3.1409   -0.2547    0.2813 C   0  0  0  0  0  0  0  0  0  0  0  0
   -6.4775    1.8106    1.5942 H   0  0  0  0  0  0  0  0  0  0  0  0
   -6.7390    1.4250   -0.1959 H   0  0  0  0  0  0  0  0  0  0  0  0
   -6.0767    3.0147    0.2620 H   0  0  0  0  0  0  0  0  0  0  0  0
   -6.5130   -0.4715    0.5231 H   0  0  0  0  0  0  0  0  0  0  0  0
   -6.0229   -2.8821    0.4151 H   0  0  0  0  0  0  0  0  0  0  0  0
   -3.6412   -3.5915    0.2186 H   0  0  0  0  0  0  0  0  0  0  0  0
   -0.8972   -2.5523    0.0476 H   0  0  0  0  0  0  0  0  0  0  0  0
    1.0873   -2.0359   -0.0831 H   0  0  0  0  0  0  0  0  0  0  0  0
    3.4667   -2.6901   -0.2778 H   0  0  0  0  0  0  0  0  0  0  0  0
    5.8466   -2.0849   -0.4351 H   0  0  0  0  0  0  0  0  0  0  0  0
    6.4669    0.2700   -0.4105 H   0  0  0  0  0  0  0  0  0  0  0  0
    6.1755    3.8011   -0.2581 H   0  0  0  0  0  0  0  0  0  0  0  0
    6.6701    2.2177    0.5577 H   0  0  0  0  0  0  0  0  0  0  0  0
    6.6202    2.3093   -1.2504 H   0  0  0  0  0  0  0  0  0  0  0  0
  1  2  1  0
  2  3  1  0
  3  4  2  0
  4  5  1  0
  5  6  2  0
  6  7  1  0
  7  8  1  0
  8  9  2  0
  9 10  1  0
 10 11  2  0
 11 12  1  0
 12 13  2  0
 13 14  1  0
 14 15  2  0
 15 16  1  0
 16 17  1  0
 17 18  1  0
 16 19  2  0
 19 20  1  0
 20 21  1  0
 21 22  2  0
  9 23  1  0
 23 24  1  0
 24  3  1  0
 24  7  2  0
 21 10  1  0
 19 12  1  0
  1 25  1  0
  1 26  1  0
  1 27  1  0
  4 28  1  0
  5 29  1  0
  6 30  1  0
  8 31  1  0
 11 32  1  0
 13 33  1  0
 14 34  1  0
 15 35  1  0
 18 36  1  0
 18 37  1  0
 18 38  1  0
M  END
