
     RDKit          3D

 75 79  0  0  0  0  0  0  0  0999 V2000
   -5.3805    3.9280    4.4989 C   0  0  0  0  0  0  0  0  0  0  0  0
   -5.3073    3.6187    2.9925 C   0  0  0  0  0  0  0  0  0  0  0  0
   -4.9051    2.2053    2.7678 C   0  0  0  0  0  0  0  0  0  0  0  0
   -4.8972    1.8536    1.3715 N   0  0  0  0  0  0  0  0  0  0  0  0
   -6.1316    2.0147    0.6349 C   0  0  0  0  0  0  0  0  0  0  0  0
   -6.9406    0.8111    0.7368 C   0  0  0  0  0  0  0  0  0  0  0  0
   -8.0981    0.7076    0.0282 C   0  0  0  0  0  0  0  0  0  0  0  0
   -8.4853    1.7892   -0.7973 C   0  0  0  0  0  0  0  0  0  0  0  0
   -7.7462    2.9197   -0.8983 C   0  0  0  0  0  0  0  0  0  0  0  0
   -6.5945    2.9310   -0.1426 C   0  0  0  0  0  0  0  0  0  0  0  0
   -3.8386    1.2981    0.7236 C   0  0  0  0  0  0  0  0  0  0  0  0
   -3.7828    1.5970   -0.7907 C   0  0  0  0  0  0  0  0  0  0  0  0
   -2.8183    1.0706   -1.4561 C   0  0  0  0  0  0  0  0  0  0  0  0
   -1.7957    0.2574   -1.0558 C   0  0  0  0  0  0  0  0  0  0  0  0
   -1.8212   -0.0843    0.4077 C   0  0  0  0  0  0  0  0  0  0  0  0
   -2.8338    0.5043    1.0122 C   0  0  0  0  0  0  0  0  0  0  0  0
   -0.8041   -1.1363    0.4671 C   0  0  0  0  0  0  0  0  0  0  0  0
   -1.4697   -2.2917   -0.3747 C   0  0  0  0  0  0  0  0  0  0  0  0
   -0.5857   -3.4542   -0.5920 C   0  0  0  0  0  0  0  0  0  0  0  0
   -0.4022   -1.5131    1.7757 C   0  0  0  0  0  0  0  0  0  0  0  0
    0.4983   -2.6697    2.0222 C   0  0  0  0  0  0  0  0  0  0  0  0
    0.2880   -0.6457   -0.5703 C   0  0  0  0  0  0  0  0  0  0  0  0
    1.5641   -0.9336   -0.5149 C   0  0  0  0  0  0  0  0  0  0  0  0
    2.2764   -0.5839   -1.8782 C   0  0  0  0  0  0  0  0  0  0  0  0
    3.6590   -0.7202   -1.7839 C   0  0  0  0  0  0  0  0  0  0  0  0
    4.6327   -0.8807   -0.9669 C   0  0  0  0  0  0  0  0  0  0  0  0
    6.0056   -0.9605   -1.4803 C   0  0  0  0  0  0  0  0  0  0  0  0
    6.5296   -1.2472   -2.7741 C   0  0  0  0  0  0  0  0  0  0  0  0
    7.8339   -1.1496   -2.8221 C   0  0  0  0  0  0  0  0  0  0  0  0
    8.6348   -0.8618   -1.9179 C   0  0  0  0  0  0  0  0  0  0  0  0
   10.0590   -0.5781   -1.5295 C   0  0  0  0  0  0  0  0  0  0  0  0
   10.4676   -1.2895   -0.5088 C   0  0  0  0  0  0  0  0  0  0  0  0
    9.3795   -2.2923    0.0172 C   0  0  0  0  0  0  0  0  0  0  0  0
    8.6094   -3.0151    0.4112 N   0  0  0  0  0  0  0  0  0  0  0  0
   11.7443   -1.2293    0.1172 C   0  0  0  0  0  0  0  0  0  0  0  0
   12.5758   -0.3775   -0.4435 O   0  0  0  0  0  0  0  0  0  0  0  0
   12.0374   -1.9942    1.1833 O   0  0  0  0  0  0  0  0  0  0  0  0
    7.4366   -0.6266   -0.5747 S   0  0  0  0  0  0  0  0  0  0  0  0
    1.4456   -0.1001   -2.7326 C   0  0  0  0  0  0  0  0  0  0  0  0
    0.1625    0.1946   -2.7887 C   0  0  0  0  0  0  0  0  0  0  0  0
   -0.5164   -0.1374   -1.4530 C   0  0  0  0  0  0  0  0  0  0  0  0
   -5.5443    2.9956    5.0532 H   0  0  0  0  0  0  0  0  0  0  0  0
   -4.4864    4.4807    4.8539 H   0  0  0  0  0  0  0  0  0  0  0  0
   -6.2775    4.6119    4.6525 H   0  0  0  0  0  0  0  0  0  0  0  0
   -4.6616    4.3954    2.5535 H   0  0  0  0  0  0  0  0  0  0  0  0
   -6.3456    3.8000    2.5693 H   0  0  0  0  0  0  0  0  0  0  0  0
   -3.9318    1.9022    3.2239 H   0  0  0  0  0  0  0  0  0  0  0  0
   -5.6927    1.5498    3.2398 H   0  0  0  0  0  0  0  0  0  0  0  0
   -6.6042    0.0458    1.3666 H   0  0  0  0  0  0  0  0  0  0  0  0
   -8.6849   -0.1771    0.1004 H   0  0  0  0  0  0  0  0  0  0  0  0
   -9.3909    1.6977   -1.3709 H   0  0  0  0  0  0  0  0  0  0  0  0
   -7.9599    3.7871   -1.5042 H   0  0  0  0  0  0  0  0  0  0  0  0
   -5.9746    3.8796   -0.2435 H   0  0  0  0  0  0  0  0  0  0  0  0
   -4.5525    2.2291   -1.1207 H   0  0  0  0  0  0  0  0  0  0  0  0
   -2.7476    1.2728   -2.5859 H   0  0  0  0  0  0  0  0  0  0  0  0
   -2.8274    0.2699    2.1779 H   0  0  0  0  0  0  0  0  0  0  0  0
   -2.4454   -2.4710    0.0795 H   0  0  0  0  0  0  0  0  0  0  0  0
   -1.6507   -1.7828   -1.3494 H   0  0  0  0  0  0  0  0  0  0  0  0
   -0.6103   -3.7434   -1.7274 H   0  0  0  0  0  0  0  0  0  0  0  0
    0.4735   -3.3407   -0.3738 H   0  0  0  0  0  0  0  0  0  0  0  0
   -0.9935   -4.3528   -0.1058 H   0  0  0  0  0  0  0  0  0  0  0  0
    0.0276   -0.6346    2.3469 H   0  0  0  0  0  0  0  0  0  0  0  0
   -1.3613   -1.7571    2.3797 H   0  0  0  0  0  0  0  0  0  0  0  0
    1.5159   -2.6512    1.6839 H   0  0  0  0  0  0  0  0  0  0  0  0
    0.5855   -2.7381    3.1742 H   0  0  0  0  0  0  0  0  0  0  0  0
   -0.0314   -3.6527    1.8328 H   0  0  0  0  0  0  0  0  0  0  0  0
    2.2359   -1.3126    0.1392 H   0  0  0  0  0  0  0  0  0  0  0  0
    4.1313   -0.6785   -2.8896 H   0  0  0  0  0  0  0  0  0  0  0  0
    4.3860   -0.9229    0.0718 H   0  0  0  0  0  0  0  0  0  0  0  0
    5.8307   -1.5091   -3.5848 H   0  0  0  0  0  0  0  0  0  0  0  0
    8.3180   -1.4199   -3.9048 H   0  0  0  0  0  0  0  0  0  0  0  0
   10.6017    0.1105   -2.0435 H   0  0  0  0  0  0  0  0  0  0  0  0
   12.4757   -1.5263    2.0038 H   0  0  0  0  0  0  0  0  0  0  0  0
    1.9803    0.1424   -3.7754 H   0  0  0  0  0  0  0  0  0  0  0  0
   -0.4726    0.5722   -3.5035 H   0  0  0  0  0  0  0  0  0  0  0  0
  1  2  1  0
  2  3  1  0
  3  4  1  0
  4  5  1  0
  5  6  2  0
  6  7  1  0
  7  8  2  0
  8  9  1  0
  9 10  2  0
  4 11  1  0
 11 12  2  0
 12 13  1  0
 13 14  2  0
 14 15  1  0
 15 16  2  0
 15 17  1  0
 17 18  1  0
 18 19  1  0
 17 20  1  0
 20 21  1  0
 17 22  1  0
 22 23  2  0
 23 24  1  0
 24 25  1  0
 25 26  2  0
 26 27  1  0
 27 28  2  0
 28 29  1  0
 29 30  2  0
 30 31  1  0
 31 32  2  0
 32 33  1  0
 33 34  3  0
 32 35  1  0
 35 36  2  0
 35 37  1  0
 30 38  1  0
 24 39  2  0
 39 40  1  0
 40 41  2  0
 10  5  1  0
 16 11  1  0
 41 22  1  0
 41 14  1  0
 38 27  1  0
  1 42  1  0
  1 43  1  0
  1 44  1  0
  2 45  1  0
  2 46  1  0
  3 47  1  0
  3 48  1  0
  6 49  1  0
  7 50  1  0
  8 51  1  0
  9 52  1  0
 10 53  1  0
 12 54  1  0
 13 55  1  0
 16 56  1  0
 18 57  1  0
 18 58  1  0
 19 59  1  0
 19 60  1  0
 19 61  1  0
 20 62  1  0
 20 63  1  0
 21 64  1  0
 21 65  1  0
 21 66  1  0
 23 67  1  0
 25 68  1  0
 26 69  1  0
 28 70  1  0
 29 71  1  0
 31 72  1  0
 37 73  1  0
 39 74  1  0
 40 75  1  0
M  END
