
     RDKit          3D

 43 45  0  0  0  0  0  0  0  0999 V2000
   -7.8966    0.0911    0.9068 C   0  0  0  0  0  0  0  0  0  0  0  0
   -7.0863   -0.8681    0.0954 C   0  0  0  0  0  0  0  0  0  0  0  0
   -5.6982   -0.5313    0.1729 O   0  0  0  0  0  0  0  0  0  0  0  0
   -4.7570   -1.2902   -0.5038 C   0  0  0  0  0  0  0  0  0  0  0  0
   -5.1766   -2.2615   -1.1697 O   0  0  0  0  0  0  0  0  0  0  0  0
   -3.3311   -0.9778   -0.4483 C   0  0  0  0  0  0  0  0  0  0  0  0
   -2.0752   -1.8366   -1.2327 S   0  0  0  0  0  0  0  0  0  0  0  0
   -0.7425   -0.8986   -0.7025 C   0  0  0  0  0  0  0  0  0  0  0  0
    0.5922   -0.9876   -0.9286 N   0  0  0  0  0  0  0  0  0  0  0  0
    1.4469   -0.1059   -0.3813 C   0  0  0  0  0  0  0  0  0  0  0  0
    2.8673   -0.2580   -0.6613 C   0  0  0  0  0  0  0  0  0  0  0  0
    3.8366   -0.1723    0.3096 C   0  0  0  0  0  0  0  0  0  0  0  0
    5.1793   -0.3227    0.0267 C   0  0  0  0  0  0  0  0  0  0  0  0
    5.6059   -0.5674   -1.2534 C   0  0  0  0  0  0  0  0  0  0  0  0
    6.9163   -0.7254   -1.5929 O   0  0  0  0  0  0  0  0  0  0  0  0
    8.0004   -0.6692   -0.7354 C   0  0  0  0  0  0  0  0  0  0  0  0
    4.6338   -0.6583   -2.2578 C   0  0  0  0  0  0  0  0  0  0  0  0
    3.3002   -0.5062   -1.9609 C   0  0  0  0  0  0  0  0  0  0  0  0
    0.9300    0.8801    0.4074 C   0  0  0  0  0  0  0  0  0  0  0  0
    1.8602    1.8947    1.0404 C   0  0  0  0  0  0  0  0  0  0  0  0
   -0.4255    0.9654    0.6333 C   0  0  0  0  0  0  0  0  0  0  0  0
   -0.8870    2.0504    1.4903 C   0  0  0  0  0  0  0  0  0  0  0  0
   -1.2571    2.9236    2.1554 N   0  0  0  0  0  0  0  0  0  0  0  0
   -1.3332    0.0589    0.0744 C   0  0  0  0  0  0  0  0  0  0  0  0
   -2.6682    0.0186    0.2059 C   0  0  0  0  0  0  0  0  0  0  0  0
   -3.4577    0.9443    0.9826 N   0  0  0  0  0  0  0  0  0  0  0  0
   -8.3325    0.8614    0.2378 H   0  0  0  0  0  0  0  0  0  0  0  0
   -8.7448   -0.4422    1.4168 H   0  0  0  0  0  0  0  0  0  0  0  0
   -7.2720    0.5290    1.7077 H   0  0  0  0  0  0  0  0  0  0  0  0
   -7.1942   -1.8935    0.5175 H   0  0  0  0  0  0  0  0  0  0  0  0
   -7.4224   -0.9199   -0.9462 H   0  0  0  0  0  0  0  0  0  0  0  0
    3.5688    0.0166    1.3373 H   0  0  0  0  0  0  0  0  0  0  0  0
    5.9331   -0.2469    0.8292 H   0  0  0  0  0  0  0  0  0  0  0  0
    8.8362   -1.3487   -1.0421 H   0  0  0  0  0  0  0  0  0  0  0  0
    8.4620    0.3579   -0.8055 H   0  0  0  0  0  0  0  0  0  0  0  0
    7.7792   -0.8297    0.3261 H   0  0  0  0  0  0  0  0  0  0  0  0
    4.9122   -0.8496   -3.2823 H   0  0  0  0  0  0  0  0  0  0  0  0
    2.5372   -0.5713   -2.7132 H   0  0  0  0  0  0  0  0  0  0  0  0
    1.2649    2.8548    1.0022 H   0  0  0  0  0  0  0  0  0  0  0  0
    2.0373    1.6962    2.0938 H   0  0  0  0  0  0  0  0  0  0  0  0
    2.7207    2.0504    0.3975 H   0  0  0  0  0  0  0  0  0  0  0  0
   -3.5653    1.8959    0.6260 H   0  0  0  0  0  0  0  0  0  0  0  0
   -3.8974    0.6491    1.8705 H   0  0  0  0  0  0  0  0  0  0  0  0
  1  2  1  0
  2  3  1  0
  3  4  1  0
  4  5  2  0
  4  6  1  0
  6  7  1  0
  7  8  1  0
  8  9  2  0
  9 10  1  0
 10 11  1  0
 11 12  2  0
 12 13  1  0
 13 14  2  0
 14 15  1  0
 15 16  1  0
 14 17  1  0
 17 18  2  0
 10 19  2  0
 19 20  1  0
 19 21  1  0
 21 22  1  0
 22 23  3  0
 21 24  2  0
 24 25  1  0
 25 26  1  0
 25  6  2  0
 24  8  1  0
 18 11  1  0
  1 27  1  0
  1 28  1  0
  1 29  1  0
  2 30  1  0
  2 31  1  0
 12 32  1  0
 13 33  1  0
 16 34  1  0
 16 35  1  0
 16 36  1  0
 17 37  1  0
 18 38  1  0
 20 39  1  0
 20 40  1  0
 20 41  1  0
 26 42  1  0
 26 43  1  0
M  END
