
     RDKit          3D

 42 46  0  0  0  0  0  0  0  0999 V2000
   -1.3939   -1.3715   -2.7922 O   0  0  0  0  0  0  0  0  0  0  0  0
   -2.2958   -0.8262   -1.8950 C   0  0  0  0  0  0  0  0  0  0  0  0
   -3.6396   -0.8602   -2.1985 C   0  0  0  0  0  0  0  0  0  0  0  0
   -4.5470   -0.3219   -1.3159 C   0  0  0  0  0  0  0  0  0  0  0  0
   -4.0872    0.2413   -0.1435 C   0  0  0  0  0  0  0  0  0  0  0  0
   -5.0260    0.7837    0.7415 C   0  0  0  0  0  0  0  0  0  0  0  0
   -4.5781    1.3493    1.9165 C   0  0  0  0  0  0  0  0  0  0  0  0
   -3.2264    1.3657    2.1872 C   0  0  0  0  0  0  0  0  0  0  0  0
   -2.2890    0.8361    1.3268 C   0  0  0  0  0  0  0  0  0  0  0  0
   -2.7400    0.2683    0.1471 C   0  0  0  0  0  0  0  0  0  0  0  0
   -1.8248   -0.2650   -0.7244 C   0  0  0  0  0  0  0  0  0  0  0  0
   -0.3928   -0.2330   -0.4091 C   0  0  0  0  0  0  0  0  0  0  0  0
    0.5272    0.6934   -0.6934 N   0  0  0  0  0  0  0  0  0  0  0  0
    1.7464    0.3186   -0.2087 C   0  0  0  0  0  0  0  0  0  0  0  0
    3.0004    1.0454   -0.3138 C   0  0  0  0  0  0  0  0  0  0  0  0
    3.8462    1.2309    0.7568 C   0  0  0  0  0  0  0  0  0  0  0  0
    5.0558    1.9268    0.6489 C   0  0  0  0  0  0  0  0  0  0  0  0
    5.4338    2.4549   -0.5670 C   0  0  0  0  0  0  0  0  0  0  0  0
    4.5925    2.2735   -1.6429 C   0  0  0  0  0  0  0  0  0  0  0  0
    3.4087    1.5913   -1.5331 C   0  0  0  0  0  0  0  0  0  0  0  0
    1.5754   -0.8878    0.3997 C   0  0  0  0  0  0  0  0  0  0  0  0
    2.4695   -1.7306    1.0572 C   0  0  0  0  0  0  0  0  0  0  0  0
    1.9784   -2.9111    1.5753 C   0  0  0  0  0  0  0  0  0  0  0  0
    0.6425   -3.2407    1.4427 C   0  0  0  0  0  0  0  0  0  0  0  0
   -0.2003   -2.3718    0.7827 C   0  0  0  0  0  0  0  0  0  0  0  0
    0.2676   -1.2088    0.2686 N   0  0  0  0  0  0  0  0  0  0  0  0
   -1.6325   -1.7957   -3.6563 H   0  0  0  0  0  0  0  0  0  0  0  0
   -3.9891   -1.3074   -3.1268 H   0  0  0  0  0  0  0  0  0  0  0  0
   -5.6200   -0.3213   -1.5045 H   0  0  0  0  0  0  0  0  0  0  0  0
   -6.0864    0.7511    0.4908 H   0  0  0  0  0  0  0  0  0  0  0  0
   -5.3188    1.7714    2.6033 H   0  0  0  0  0  0  0  0  0  0  0  0
   -2.8658    1.8065    3.1050 H   0  0  0  0  0  0  0  0  0  0  0  0
   -1.2407    0.8363    1.5125 H   0  0  0  0  0  0  0  0  0  0  0  0
    3.5730    0.8300    1.7309 H   0  0  0  0  0  0  0  0  0  0  0  0
    5.6710    2.0345    1.5306 H   0  0  0  0  0  0  0  0  0  0  0  0
    6.3669    2.9994   -0.6796 H   0  0  0  0  0  0  0  0  0  0  0  0
    4.9160    2.7009   -2.5896 H   0  0  0  0  0  0  0  0  0  0  0  0
    2.7594    1.4546   -2.3761 H   0  0  0  0  0  0  0  0  0  0  0  0
    3.5137   -1.4727    1.1568 H   0  0  0  0  0  0  0  0  0  0  0  0
    2.6297   -3.6031    2.0962 H   0  0  0  0  0  0  0  0  0  0  0  0
    0.2715   -4.1849    1.8623 H   0  0  0  0  0  0  0  0  0  0  0  0
   -1.2513   -2.6502    0.6886 H   0  0  0  0  0  0  0  0  0  0  0  0
  1  2  1  0
  2  3  2  0
  3  4  1  0
  4  5  2  0
  5  6  1  0
  6  7  2  0
  7  8  1  0
  8  9  2  0
  9 10  1  0
 10 11  2  0
 11 12  1  0
 12 13  2  0
 13 14  1  0
 14 15  1  0
 15 16  2  0
 16 17  1  0
 17 18  2  0
 18 19  1  0
 19 20  2  0
 14 21  2  0
 21 22  1  0
 22 23  2  0
 23 24  1  0
 24 25  2  0
 25 26  1  0
 11  2  1  0
 26 12  1  0
 10  5  1  0
 20 15  1  0
 26 21  1  0
  1 27  1  0
  3 28  1  0
  4 29  1  0
  6 30  1  0
  7 31  1  0
  8 32  1  0
  9 33  1  0
 16 34  1  0
 17 35  1  0
 18 36  1  0
 19 37  1  0
 20 38  1  0
 22 39  1  0
 23 40  1  0
 24 41  1  0
 25 42  1  0
M  END
