
     RDKit          3D

 43 47  0  0  0  0  0  0  0  0999 V2000
   -0.1624   -4.9039    0.1026 F   0  0  0  0  0  0  0  0  0  0  0  0
   -0.0145   -3.7694    0.9995 B   0  0  0  0  0  4  0  0  0  0  0  0
    0.0841   -4.2294    2.3959 F   0  0  0  0  0  0  0  0  0  0  0  0
   -1.2186   -2.9477    0.8997 O   0  0  0  0  0  0  0  0  0  0  0  0
   -1.1944   -1.5838    0.5674 C   0  0  0  0  0  0  0  0  0  0  0  0
   -2.4987   -0.8862    0.5059 C   0  0  0  0  0  0  0  0  0  0  0  0
   -3.6688   -1.5725    0.7685 C   0  0  0  0  0  0  0  0  0  0  0  0
   -4.9124   -0.9806    0.7276 C   0  0  0  0  0  0  0  0  0  0  0  0
   -5.0297    0.3684    0.4106 C   0  0  0  0  0  0  0  0  0  0  0  0
   -6.2787    0.9619    0.3697 C   0  0  0  0  0  0  0  0  0  0  0  0
   -6.3616    2.3017    0.0522 C   0  0  0  0  0  0  0  0  0  0  0  0
   -5.2000    3.0047   -0.2137 C   0  0  0  0  0  0  0  0  0  0  0  0
   -3.9631    2.4010   -0.1694 C   0  0  0  0  0  0  0  0  0  0  0  0
   -3.8713    1.0644    0.1466 C   0  0  0  0  0  0  0  0  0  0  0  0
   -2.6096    0.4456    0.1925 C   0  0  0  0  0  0  0  0  0  0  0  0
   -0.0463   -1.0176    0.3357 C   0  0  0  0  0  0  0  0  0  0  0  0
    1.2098   -1.7465    0.4088 C   0  0  0  0  0  0  0  0  0  0  0  0
    2.5015   -1.0699    0.1385 C   0  0  0  0  0  0  0  0  0  0  0  0
    3.6661   -1.8139    0.2227 C   0  0  0  0  0  0  0  0  0  0  0  0
    4.9074   -1.2722   -0.0107 C   0  0  0  0  0  0  0  0  0  0  0  0
    5.0223    0.0425   -0.3386 C   0  0  0  0  0  0  0  0  0  0  0  0
    6.2756    0.5640   -0.5682 C   0  0  0  0  0  0  0  0  0  0  0  0
    6.3983    1.8803   -0.8971 C   0  0  0  0  0  0  0  0  0  0  0  0
    5.2619    2.6541   -0.9909 C   0  0  0  0  0  0  0  0  0  0  0  0
    4.0178    2.1234   -0.7598 C   0  0  0  0  0  0  0  0  0  0  0  0
    3.8723    0.7983   -0.4269 C   0  0  0  0  0  0  0  0  0  0  0  0
    2.6115    0.2398   -0.1878 C   0  0  0  0  0  0  0  0  0  0  0  0
    1.1832   -2.9638    0.7057 O   0  0  0  0  0  3  0  0  0  0  0  0
   -3.5878   -2.6377    1.0197 H   0  0  0  0  0  0  0  0  0  0  0  0
   -5.8280   -1.5075    0.9306 H   0  0  0  0  0  0  0  0  0  0  0  0
   -7.1783    0.3686    0.5875 H   0  0  0  0  0  0  0  0  0  0  0  0
   -7.3329    2.7653    0.0199 H   0  0  0  0  0  0  0  0  0  0  0  0
   -5.2603    4.0674   -0.4661 H   0  0  0  0  0  0  0  0  0  0  0  0
   -3.0532    2.9477   -0.3768 H   0  0  0  0  0  0  0  0  0  0  0  0
   -1.7418    1.0364   -0.0220 H   0  0  0  0  0  0  0  0  0  0  0  0
   -0.0427    0.0304    0.0816 H   0  0  0  0  0  0  0  0  0  0  0  0
    3.5787   -2.8544    0.4820 H   0  0  0  0  0  0  0  0  0  0  0  0
    5.7601   -1.9177    0.0754 H   0  0  0  0  0  0  0  0  0  0  0  0
    7.1590   -0.0542   -0.4912 H   0  0  0  0  0  0  0  0  0  0  0  0
    7.3450    2.3617   -1.0917 H   0  0  0  0  0  0  0  0  0  0  0  0
    5.3298    3.7088   -1.2519 H   0  0  0  0  0  0  0  0  0  0  0  0
    3.1232    2.7204   -0.8307 H   0  0  0  0  0  0  0  0  0  0  0  0
    1.7476    0.8721   -0.2697 H   0  0  0  0  0  0  0  0  0  0  0  0
  1  2  1  0
  2  3  1  0
  2  4  1  0
  4  5  1  0
  5  6  1  0
  6  7  2  0
  7  8  1  0
  8  9  2  0
  9 10  1  0
 10 11  2  0
 11 12  1  0
 12 13  2  0
 13 14  1  0
 14 15  2  0
  5 16  2  0
 16 17  1  0
 17 18  1  0
 18 19  2  0
 19 20  1  0
 20 21  2  0
 21 22  1  0
 22 23  2  0
 23 24  1  0
 24 25  2  0
 25 26  1  0
 26 27  2  0
 17 28  2  0
 28  2  1  0
 15  6  1  0
 27 18  1  0
 14  9  1  0
 26 21  1  0
  7 29  1  0
  8 30  1  0
 10 31  1  0
 11 32  1  0
 12 33  1  0
 13 34  1  0
 15 35  1  0
 16 36  1  0
 19 37  1  0
 20 38  1  0
 22 39  1  0
 23 40  1  0
 24 41  1  0
 25 42  1  0
 27 43  1  0
M  CHG  2   2  -1  28   1
M  END
