
     RDKit          3D

 37 40  0  0  0  0  0  0  0  0999 V2000
    6.6450   -0.3271   -0.0425 C   0  0  0  0  0  0  0  0  0  0  0  0
    5.1674   -0.2090    0.0185 C   0  0  0  0  0  0  0  0  0  0  0  0
    4.4159   -0.9196   -0.8767 C   0  0  0  0  0  0  0  0  0  0  0  0
    3.0183   -0.8069   -0.8179 C   0  0  0  0  0  0  0  0  0  0  0  0
    2.3991   -0.0123    0.1030 C   0  0  0  0  0  0  0  0  0  0  0  0
    0.9418    0.0808    0.1349 C   0  0  0  0  0  0  0  0  0  0  0  0
    0.2389   -0.6066   -0.7302 C   0  0  0  0  0  0  0  0  0  0  0  0
   -1.2356   -0.5376   -0.7245 C   0  0  0  0  0  0  0  0  0  0  0  0
   -1.9542   -1.2481   -1.6761 C   0  0  0  0  0  0  0  0  0  0  0  0
   -3.3171   -1.1913   -1.7320 C   0  0  0  0  0  0  0  0  0  0  0  0
   -3.9471   -0.3955   -0.7998 C   0  0  0  0  0  0  0  0  0  0  0  0
   -5.3405   -0.2995   -0.8134 C   0  0  0  0  0  0  0  0  0  0  0  0
   -6.0030    0.4816    0.0944 C   0  0  0  0  0  0  0  0  0  0  0  0
   -5.2809    1.1793    1.0309 C   0  0  0  0  0  0  0  0  0  0  0  0
   -3.8960    1.1103    1.0775 C   0  0  0  0  0  0  0  0  0  0  0  0
   -3.2554    0.3211    0.1578 C   0  0  0  0  0  0  0  0  0  0  0  0
   -1.8916    0.2162    0.1551 N   0  0  0  0  0  4  0  0  0  0  0  0
   -1.1371    0.9567    1.2103 B   0  0  0  0  0  4  0  0  0  0  0  0
   -1.5814    0.7339    2.5694 F   0  0  0  0  0  0  0  0  0  0  0  0
   -1.4782    2.3939    0.9859 F   0  0  0  0  0  0  0  0  0  0  0  0
    0.2993    0.8825    1.0598 O   0  0  0  0  0  0  0  0  0  0  0  0
    3.1638    0.7098    1.0127 C   0  0  0  0  0  0  0  0  0  0  0  0
    4.5241    0.5917    0.9454 C   0  0  0  0  0  0  0  0  0  0  0  0
    7.0537   -1.0192    0.7236 H   0  0  0  0  0  0  0  0  0  0  0  0
    7.0494    0.7199    0.0868 H   0  0  0  0  0  0  0  0  0  0  0  0
    6.9723   -0.6328   -1.0569 H   0  0  0  0  0  0  0  0  0  0  0  0
    4.8995   -1.5464   -1.6035 H   0  0  0  0  0  0  0  0  0  0  0  0
    2.5206   -1.4056   -1.5647 H   0  0  0  0  0  0  0  0  0  0  0  0
    0.6526   -1.2586   -1.4936 H   0  0  0  0  0  0  0  0  0  0  0  0
   -1.3999   -1.8742   -2.4040 H   0  0  0  0  0  0  0  0  0  0  0  0
   -3.9104   -1.7155   -2.4396 H   0  0  0  0  0  0  0  0  0  0  0  0
   -5.8815   -0.8517   -1.5518 H   0  0  0  0  0  0  0  0  0  0  0  0
   -7.1030    0.5477    0.0716 H   0  0  0  0  0  0  0  0  0  0  0  0
   -5.7584    1.8092    1.7682 H   0  0  0  0  0  0  0  0  0  0  0  0
   -3.3317    1.6531    1.8023 H   0  0  0  0  0  0  0  0  0  0  0  0
    2.6136    1.3166    1.7118 H   0  0  0  0  0  0  0  0  0  0  0  0
    5.1278    1.1531    1.6531 H   0  0  0  0  0  0  0  0  0  0  0  0
  1  2  1  0
  2  3  2  0
  3  4  1  0
  4  5  2  0
  5  6  1  0
  6  7  2  0
  7  8  1  0
  8  9  2  0
  9 10  1  0
 10 11  2  0
 11 12  1  0
 12 13  2  0
 13 14  1  0
 14 15  2  0
 15 16  1  0
 16 17  2  0
 17 18  1  0
 18 19  1  0
 18 20  1  0
 18 21  1  0
  5 22  1  0
 22 23  2  0
 23  2  1  0
 21  6  1  0
 17  8  1  0
 16 11  1  0
  1 24  1  0
  1 25  1  0
  1 26  1  0
  3 27  1  0
  4 28  1  0
  7 29  1  0
  9 30  1  0
 10 31  1  0
 12 32  1  0
 13 33  1  0
 14 34  1  0
 15 35  1  0
 22 36  1  0
 23 37  1  0
M  CHG  2  17   1  18  -1
M  END
