
     RDKit          3D

 35 37  0  0  0  0  0  0  0  0999 V2000
   -6.0247   -0.8883   -0.5642 C   0  0  0  0  0  0  0  0  0  0  0  0
   -5.0027    0.0185   -0.2104 O   0  0  0  0  0  0  0  0  0  0  0  0
   -3.6506   -0.2788   -0.2941 C   0  0  0  0  0  0  0  0  0  0  0  0
   -3.1804   -1.5184   -0.7419 C   0  0  0  0  0  0  0  0  0  0  0  0
   -1.8324   -1.7875   -0.8152 C   0  0  0  0  0  0  0  0  0  0  0  0
   -0.9411   -0.8186   -0.4410 C   0  0  0  0  0  0  0  0  0  0  0  0
    0.4977   -1.0525   -0.4996 C   0  0  0  0  0  0  0  0  0  0  0  0
    1.1336   -2.1918   -0.9072 C   0  0  0  0  0  0  0  0  0  0  0  0
    2.4494   -1.9404   -0.7893 N   0  0  0  0  0  0  0  0  0  0  0  0
    2.6045   -0.7038   -0.3306 C   0  0  0  0  0  0  0  0  0  0  0  0
    3.8594    0.0191   -0.0401 C   0  0  0  0  0  0  0  0  0  0  0  0
    5.0826   -0.5846   -0.2391 C   0  0  0  0  0  0  0  0  0  0  0  0
    6.2374    0.1305    0.0467 C   0  0  0  0  0  0  0  0  0  0  0  0
    6.1676    1.4241    0.5221 C   0  0  0  0  0  0  0  0  0  0  0  0
    4.9666    2.0017    0.7119 N   0  0  0  0  0  0  0  0  0  0  0  0
    3.8405    1.3122    0.4361 C   0  0  0  0  0  0  0  0  0  0  0  0
    1.4161   -0.1846   -0.1621 O   0  0  0  0  0  0  0  0  0  0  0  0
   -1.4284    0.3909   -0.0046 C   0  0  0  0  0  0  0  0  0  0  0  0
   -2.7580    0.6973    0.0828 C   0  0  0  0  0  0  0  0  0  0  0  0
   -3.1453    1.9409    0.5336 O   0  0  0  0  0  0  0  0  0  0  0  0
   -2.2624    2.9513    0.9224 C   0  0  0  0  0  0  0  0  0  0  0  0
   -6.2022   -0.9275   -1.6652 H   0  0  0  0  0  0  0  0  0  0  0  0
   -5.7328   -1.8820   -0.1491 H   0  0  0  0  0  0  0  0  0  0  0  0
   -6.9722   -0.6201   -0.0462 H   0  0  0  0  0  0  0  0  0  0  0  0
   -3.9300   -2.2545   -1.0276 H   0  0  0  0  0  0  0  0  0  0  0  0
   -1.5088   -2.7650   -1.1693 H   0  0  0  0  0  0  0  0  0  0  0  0
    0.6398   -3.1112   -1.2555 H   0  0  0  0  0  0  0  0  0  0  0  0
    5.1423   -1.5972   -0.6111 H   0  0  0  0  0  0  0  0  0  0  0  0
    7.2050   -0.3613   -0.1160 H   0  0  0  0  0  0  0  0  0  0  0  0
    7.1015    1.9357    0.7286 H   0  0  0  0  0  0  0  0  0  0  0  0
    2.8677    1.7773    0.5888 H   0  0  0  0  0  0  0  0  0  0  0  0
   -0.6874    1.1404    0.2860 H   0  0  0  0  0  0  0  0  0  0  0  0
   -2.7366    3.9462    0.9916 H   0  0  0  0  0  0  0  0  0  0  0  0
   -1.3836    3.0539    0.2274 H   0  0  0  0  0  0  0  0  0  0  0  0
   -1.8321    2.7278    1.9350 H   0  0  0  0  0  0  0  0  0  0  0  0
  1  2  1  0
  2  3  1  0
  3  4  2  0
  4  5  1  0
  5  6  2  0
  6  7  1  0
  7  8  2  0
  8  9  1  0
  9 10  2  0
 10 11  1  0
 11 12  2  0
 12 13  1  0
 13 14  2  0
 14 15  1  0
 15 16  2  0
 10 17  1  0
  6 18  1  0
 18 19  2  0
 19 20  1  0
 20 21  1  0
 19  3  1  0
 17  7  1  0
 16 11  1  0
  1 22  1  0
  1 23  1  0
  1 24  1  0
  4 25  1  0
  5 26  1  0
  8 27  1  0
 12 28  1  0
 13 29  1  0
 14 30  1  0
 16 31  1  0
 18 32  1  0
 21 33  1  0
 21 34  1  0
 21 35  1  0
M  END
