
     RDKit          3D

 38 41  0  0  0  0  0  0  0  0999 V2000
   -6.9138    0.1907    0.6408 O   0  0  0  0  0  0  0  0  0  0  0  0
   -6.0574    1.0177    0.2337 C   0  0  0  0  0  0  0  0  0  0  0  0
   -6.4560    2.2461   -0.2204 O   0  0  0  0  0  0  0  0  0  0  0  0
   -4.6407    0.6369    0.2579 C   0  0  0  0  0  0  0  0  0  0  0  0
   -4.2347   -0.6002    0.7149 C   0  0  0  0  0  0  0  0  0  0  0  0
   -2.8882   -0.9785    0.7444 C   0  0  0  0  0  0  0  0  0  0  0  0
   -1.9559   -0.0949    0.3059 C   0  0  0  0  0  0  0  0  0  0  0  0
   -0.5349   -0.3829    0.2189 C   0  0  0  0  0  0  0  0  0  0  0  0
    0.3880    0.6377    0.1476 N   0  0  0  0  0  0  0  0  0  0  0  0
    1.6225    0.1642    0.0405 C   0  0  0  0  0  0  0  0  0  0  0  0
    2.8598    0.9353   -0.0603 C   0  0  0  0  0  0  0  0  0  0  0  0
    3.9858    0.6409    0.6790 C   0  0  0  0  0  0  0  0  0  0  0  0
    5.1487    1.3574    0.5863 C   0  0  0  0  0  0  0  0  0  0  0  0
    5.2194    2.4253   -0.2785 C   0  0  0  0  0  0  0  0  0  0  0  0
    4.0985    2.7444   -1.0362 C   0  0  0  0  0  0  0  0  0  0  0  0
    2.9383    2.0066   -0.9245 C   0  0  0  0  0  0  0  0  0  0  0  0
    1.4480   -1.2178    0.0444 C   0  0  0  0  0  0  0  0  0  0  0  0
    2.4277   -2.1962   -0.0636 C   0  0  0  0  0  0  0  0  0  0  0  0
    2.0465   -3.5263   -0.0633 C   0  0  0  0  0  0  0  0  0  0  0  0
    0.7018   -3.8026    0.0447 C   0  0  0  0  0  0  0  0  0  0  0  0
   -0.2754   -2.8174    0.1530 C   0  0  0  0  0  0  0  0  0  0  0  0
    0.1433   -1.5212    0.1512 N   0  0  0  0  0  0  0  0  0  0  0  0
   -2.3885    1.1668   -0.1574 C   0  0  0  0  0  0  0  0  0  0  0  0
   -3.7065    1.5479   -0.1897 C   0  0  0  0  0  0  0  0  0  0  0  0
   -7.3625    2.5897    0.1104 H   0  0  0  0  0  0  0  0  0  0  0  0
   -4.9985   -1.2841    1.0565 H   0  0  0  0  0  0  0  0  0  0  0  0
   -2.7075   -1.9437    1.1578 H   0  0  0  0  0  0  0  0  0  0  0  0
    3.9863   -0.1920    1.3821 H   0  0  0  0  0  0  0  0  0  0  0  0
    6.0453    1.1206    1.1769 H   0  0  0  0  0  0  0  0  0  0  0  0
    6.1457    3.0118   -0.3657 H   0  0  0  0  0  0  0  0  0  0  0  0
    4.1557    3.5870   -1.7178 H   0  0  0  0  0  0  0  0  0  0  0  0
    2.0901    2.2889   -1.5321 H   0  0  0  0  0  0  0  0  0  0  0  0
    3.4753   -1.9452   -0.1496 H   0  0  0  0  0  0  0  0  0  0  0  0
    2.7967   -4.3022   -0.1460 H   0  0  0  0  0  0  0  0  0  0  0  0
    0.4027   -4.8298    0.0445 H   0  0  0  0  0  0  0  0  0  0  0  0
   -1.3164   -3.0926    0.2060 H   0  0  0  0  0  0  0  0  0  0  0  0
   -1.6587    1.8955   -0.5152 H   0  0  0  0  0  0  0  0  0  0  0  0
   -4.0304    2.5163   -0.5459 H   0  0  0  0  0  0  0  0  0  0  0  0
  1  2  2  0
  2  3  1  0
  2  4  1  0
  4  5  2  0
  5  6  1  0
  6  7  2  0
  7  8  1  0
  8  9  2  0
  9 10  1  0
 10 11  1  0
 11 12  2  0
 12 13  1  0
 13 14  2  0
 14 15  1  0
 15 16  2  0
 10 17  2  0
 17 18  1  0
 18 19  2  0
 19 20  1  0
 20 21  2  0
 21 22  1  0
  7 23  1  0
 23 24  2  0
 24  4  1  0
 22  8  1  0
 16 11  1  0
 22 17  1  0
  3 25  1  0
  5 26  1  0
  6 27  1  0
 12 28  1  0
 13 29  1  0
 14 30  1  0
 15 31  1  0
 16 32  1  0
 18 33  1  0
 19 34  1  0
 20 35  1  0
 21 36  1  0
 23 37  1  0
 24 38  1  0
M  END
