
     RDKit          3D

 53 56  0  0  0  0  0  0  0  0999 V2000
   -4.4762    4.3711   -2.5347 C   0  0  0  0  0  0  0  0  0  0  0  0
   -3.7571    3.3353   -1.7240 C   0  0  0  0  0  0  0  0  0  0  0  0
   -3.5199    3.4558   -0.3615 C   0  0  0  0  0  0  0  0  0  0  0  0
   -2.8768    2.5510    0.4935 C   0  0  0  0  0  0  0  0  0  0  0  0
   -2.4159    1.3228   -0.2767 C   0  0  0  0  0  0  0  0  0  0  0  0
   -1.7478    0.3884    0.5929 N   0  0  0  0  0  0  0  0  0  0  0  0
   -2.3308   -0.2389    1.7686 C   0  0  0  0  0  0  0  0  0  0  0  0
   -1.9111   -1.5370    1.9536 C   0  0  0  0  0  0  0  0  0  0  0  0
   -2.5389   -2.3491    2.9789 C   0  0  0  0  0  0  0  0  0  0  0  0
   -3.5530   -1.7054    3.7041 C   0  0  0  0  0  0  0  0  0  0  0  0
   -4.1608   -2.6511    4.7443 C   0  0  0  0  0  0  0  0  0  0  0  0
   -3.9211   -0.4705    3.4931 C   0  0  0  0  0  0  0  0  0  0  0  0
   -3.3062    0.3264    2.4891 C   0  0  0  0  0  0  0  0  0  0  0  0
   -0.4708   -0.0003    0.2869 C   0  0  0  0  0  0  0  0  0  0  0  0
    0.5401    0.1028    1.2269 C   0  0  0  0  0  0  0  0  0  0  0  0
    1.8463   -0.2728    1.0119 C   0  0  0  0  0  0  0  0  0  0  0  0
    2.1670   -0.8174   -0.2977 C   0  0  0  0  0  0  0  0  0  0  0  0
    3.6078   -0.9134   -0.5810 C   0  0  0  0  0  0  0  0  0  0  0  0
    4.5942   -0.4952    0.3186 C   0  0  0  0  0  0  0  0  0  0  0  0
    5.7725   -0.6631   -0.1755 C   0  0  0  0  0  0  0  0  0  0  0  0
    5.5367   -1.2802   -1.5774 C   0  0  0  0  0  0  0  0  0  0  0  0
    6.5067   -1.6048   -2.4373 C   0  0  0  0  0  0  0  0  0  0  0  0
    7.4688   -1.7513   -3.2681 C   0  0  0  0  0  0  0  0  0  0  0  0
    7.8349   -3.1288   -3.7386 C   0  0  0  0  0  0  0  0  0  0  0  0
    8.0984   -4.1504   -4.0903 N   0  0  0  0  0  0  0  0  0  0  0  0
    8.1853   -0.6610   -3.9411 C   0  0  0  0  0  0  0  0  0  0  0  0
    8.7801    0.2184   -4.4901 N   0  0  0  0  0  0  0  0  0  0  0  0
    4.2281   -1.3208   -1.5647 O   0  0  0  0  0  0  0  0  0  0  0  0
    1.1601   -0.9083   -1.1666 C   0  0  0  0  0  0  0  0  0  0  0  0
   -0.1179   -0.5572   -0.9783 C   0  0  0  0  0  0  0  0  0  0  0  0
   -2.6474    1.2865   -1.4813 C   0  0  0  0  0  0  0  0  0  0  0  0
   -3.2956    2.1915   -2.3470 C   0  0  0  0  0  0  0  0  0  0  0  0
   -5.3696    3.7962   -2.9772 H   0  0  0  0  0  0  0  0  0  0  0  0
   -4.7828    5.2511   -1.9267 H   0  0  0  0  0  0  0  0  0  0  0  0
   -3.8009    4.6572   -3.3942 H   0  0  0  0  0  0  0  0  0  0  0  0
   -3.8948    4.3762    0.1047 H   0  0  0  0  0  0  0  0  0  0  0  0
   -2.6330    2.6225    1.4823 H   0  0  0  0  0  0  0  0  0  0  0  0
   -1.1304   -2.0166    1.4041 H   0  0  0  0  0  0  0  0  0  0  0  0
   -2.2522   -3.3113    3.1337 H   0  0  0  0  0  0  0  0  0  0  0  0
   -5.0180   -3.1964    4.3281 H   0  0  0  0  0  0  0  0  0  0  0  0
   -4.4108   -2.0500    5.6623 H   0  0  0  0  0  0  0  0  0  0  0  0
   -3.3480   -3.3807    5.0485 H   0  0  0  0  0  0  0  0  0  0  0  0
   -4.6984    0.0153    4.0858 H   0  0  0  0  0  0  0  0  0  0  0  0
   -3.6987    1.2851    2.3879 H   0  0  0  0  0  0  0  0  0  0  0  0
    0.3513    0.5007    2.2513 H   0  0  0  0  0  0  0  0  0  0  0  0
    2.5795   -0.1965    1.7562 H   0  0  0  0  0  0  0  0  0  0  0  0
    4.3460   -0.0234    1.3323 H   0  0  0  0  0  0  0  0  0  0  0  0
    6.7911   -0.4572    0.1036 H   0  0  0  0  0  0  0  0  0  0  0  0
    6.8608   -0.1890   -2.5054 H   0  0  0  0  0  0  0  0  0  0  0  0
    1.4307   -1.3507   -2.2260 H   0  0  0  0  0  0  0  0  0  0  0  0
   -0.8539   -0.8029   -1.7042 H   0  0  0  0  0  0  0  0  0  0  0  0
   -2.3578    0.3571   -2.1435 H   0  0  0  0  0  0  0  0  0  0  0  0
   -3.3899    2.0403   -3.3758 H   0  0  0  0  0  0  0  0  0  0  0  0
  1  2  1  0
  2  3  2  0
  3  4  1  0
  4  5  2  0
  5  6  1  0
  6  7  1  0
  7  8  2  0
  8  9  1  0
  9 10  2  0
 10 11  1  0
 10 12  1  0
 12 13  2  0
  6 14  1  0
 14 15  2  0
 15 16  1  0
 16 17  2  0
 17 18  1  0
 18 19  2  0
 19 20  1  0
 20 21  2  0
 21 22  1  0
 22 23  2  3
 23 24  1  0
 24 25  3  0
 23 26  1  0
 26 27  3  0
 21 28  1  0
 17 29  1  0
 29 30  2  0
  5 31  1  0
 31 32  2  0
 32  2  1  0
 13  7  1  0
 30 14  1  0
 28 18  1  0
  1 33  1  0
  1 34  1  0
  1 35  1  0
  3 36  1  0
  4 37  1  0
  8 38  1  0
  9 39  1  0
 11 40  1  0
 11 41  1  0
 11 42  1  0
 12 43  1  0
 13 44  1  0
 15 45  1  0
 16 46  1  0
 19 47  1  0
 20 48  1  0
 22 49  1  0
 29 50  1  0
 30 51  1  0
 31 52  1  0
 32 53  1  0
M  END
