
     RDKit          3D

 35 39  0  0  0  0  0  0  0  0999 V2000
    8.0247   -0.8367   -0.2404 Cl  0  0  0  0  0  0  0  0  0  0  0  0
    6.4198   -0.1654   -0.0736 C   0  0  0  0  0  0  0  0  0  0  0  0
    6.3170    1.1317    0.2904 N   0  0  0  0  0  0  0  0  0  0  0  0
    5.0989    1.7081    0.4359 C   0  0  0  0  0  0  0  0  0  0  0  0
    4.9430    3.3888    0.9072 Cl  0  0  0  0  0  0  0  0  0  0  0  0
    4.0278    0.9433    0.2056 N   0  0  0  0  0  0  0  0  0  0  0  0
    4.0531   -0.3296   -0.1526 C   0  0  0  0  0  0  0  0  0  0  0  0
    2.9574   -1.1687   -0.4042 N   0  0  0  0  0  0  0  0  0  0  0  0
    1.5958   -0.8216   -0.3254 C   0  0  0  0  0  0  0  0  0  0  0  0
    1.1098    0.4073    0.0141 C   0  0  0  0  0  0  0  0  0  0  0  0
   -0.2392    0.7249    0.0848 C   0  0  0  0  0  0  0  0  0  0  0  0
   -0.6530    1.9998    0.4382 C   0  0  0  0  0  0  0  0  0  0  0  0
   -2.0017    2.2758    0.4972 C   0  0  0  0  0  0  0  0  0  0  0  0
   -2.9468    1.3317    0.2180 C   0  0  0  0  0  0  0  0  0  0  0  0
   -4.3168    1.6073    0.2766 C   0  0  0  0  0  0  0  0  0  0  0  0
   -5.2335    0.6181   -0.0149 C   0  0  0  0  0  0  0  0  0  0  0  0
   -4.8280   -0.6525   -0.3672 C   0  0  0  0  0  0  0  0  0  0  0  0
   -3.4521   -0.9102   -0.4207 C   0  0  0  0  0  0  0  0  0  0  0  0
   -2.9910   -2.1668   -0.7682 C   0  0  0  0  0  0  0  0  0  0  0  0
   -1.6666   -2.4945   -0.8421 C   0  0  0  0  0  0  0  0  0  0  0  0
   -0.7197   -1.5193   -0.5542 C   0  0  0  0  0  0  0  0  0  0  0  0
    0.6298   -1.7889   -0.6113 C   0  0  0  0  0  0  0  0  0  0  0  0
   -1.1600   -0.2575   -0.2048 C   0  0  0  0  0  0  0  0  0  0  0  0
   -2.5206    0.0637   -0.1333 C   0  0  0  0  0  0  0  0  0  0  0  0
    5.3069   -0.8700   -0.2875 N   0  0  0  0  0  0  0  0  0  0  0  0
    3.1870   -2.1803   -0.6860 H   0  0  0  0  0  0  0  0  0  0  0  0
    1.7789    1.2011    0.2471 H   0  0  0  0  0  0  0  0  0  0  0  0
    0.0989    2.7203    0.6517 H   0  0  0  0  0  0  0  0  0  0  0  0
   -2.3370    3.2713    0.7730 H   0  0  0  0  0  0  0  0  0  0  0  0
   -4.6034    2.6204    0.5580 H   0  0  0  0  0  0  0  0  0  0  0  0
   -6.2848    0.8218    0.0279 H   0  0  0  0  0  0  0  0  0  0  0  0
   -5.5000   -1.4509   -0.6015 H   0  0  0  0  0  0  0  0  0  0  0  0
   -3.7143   -2.9499   -0.9989 H   0  0  0  0  0  0  0  0  0  0  0  0
   -1.3109   -3.4845   -1.1161 H   0  0  0  0  0  0  0  0  0  0  0  0
    0.9307   -2.7884   -0.8888 H   0  0  0  0  0  0  0  0  0  0  0  0
  1  2  1  0
  2  3  2  0
  3  4  1  0
  4  5  1  0
  4  6  2  0
  6  7  1  0
  7  8  1  0
  8  9  1  0
  9 10  2  0
 10 11  1  0
 11 12  2  0
 12 13  1  0
 13 14  2  0
 14 15  1  0
 15 16  2  0
 16 17  1  0
 17 18  2  0
 18 19  1  0
 19 20  2  0
 20 21  1  0
 21 22  2  0
 21 23  1  0
 23 24  2  0
  7 25  2  0
 25  2  1  0
 22  9  1  0
 23 11  1  0
 24 14  1  0
 24 18  1  0
  8 26  1  0
 10 27  1  0
 12 28  1  0
 13 29  1  0
 15 30  1  0
 16 31  1  0
 17 32  1  0
 19 33  1  0
 20 34  1  0
 22 35  1  0
M  END
