
     RDKit          3D

 53 56  0  0  0  0  0  0  0  0999 V2000
   10.5864    0.5039    0.0468 C   0  0  0  0  0  0  0  0  0  0  0  0
    9.7626   -0.4008    0.8616 C   0  0  0  0  0  0  0  0  0  0  0  0
   10.3165   -1.1791    1.6736 O   0  0  0  0  0  0  0  0  0  0  0  0
    8.3136   -0.4115    0.7447 C   0  0  0  0  0  0  0  0  0  0  0  0
    7.7069    0.4455   -0.1489 C   0  0  0  0  0  0  0  0  0  0  0  0
    6.3368    0.4267   -0.2519 C   0  0  0  0  0  0  0  0  0  0  0  0
    5.5658   -0.4155    0.5047 C   0  0  0  0  0  0  0  0  0  0  0  0
    4.1139   -0.4294    0.3889 C   0  0  0  0  0  0  0  0  0  0  0  0
    2.9077   -0.4234    0.2820 C   0  0  0  0  0  0  0  0  0  0  0  0
    1.4724   -0.3969    0.1595 C   0  0  0  0  0  0  0  0  0  0  0  0
    0.8472   -1.1639   -0.8266 C   0  0  0  0  0  0  0  0  0  0  0  0
   -0.5200   -1.1658   -0.9802 C   0  0  0  0  0  0  0  0  0  0  0  0
   -1.2965   -0.4051   -0.1567 C   0  0  0  0  0  0  0  0  0  0  0  0
   -2.7512   -0.3459   -0.2527 C   0  0  0  0  0  0  0  0  0  0  0  0
   -3.4718    0.7781    0.0764 C   0  0  0  0  0  0  0  0  0  0  0  0
   -4.8683    0.8427   -0.0155 C   0  0  0  0  0  0  0  0  0  0  0  0
   -5.5726    2.0155    0.3225 N   0  0  0  0  0  0  0  0  0  0  0  0
   -6.3358    2.7768   -0.6453 C   0  0  0  0  0  0  0  0  0  0  0  0
   -5.5701    2.5341    1.6948 C   0  0  0  0  0  0  0  0  0  0  0  0
   -5.5659   -0.2634   -0.4541 C   0  0  0  0  0  0  0  0  0  0  0  0
   -6.9563   -0.2719   -0.5673 C   0  0  0  0  0  0  0  0  0  0  0  0
   -7.6036   -1.3881   -1.0026 C   0  0  0  0  0  0  0  0  0  0  0  0
   -6.9129   -2.5257   -1.3391 C   0  0  0  0  0  0  0  0  0  0  0  0
   -5.5395   -2.5247   -1.2297 C   0  0  0  0  0  0  0  0  0  0  0  0
   -4.8635   -1.4125   -0.7934 C   0  0  0  0  0  0  0  0  0  0  0  0
   -3.4689   -1.4362   -0.6878 C   0  0  0  0  0  0  0  0  0  0  0  0
   -0.6806    0.3642    0.8316 C   0  0  0  0  0  0  0  0  0  0  0  0
    0.6840    0.3672    0.9862 C   0  0  0  0  0  0  0  0  0  0  0  0
    6.1744   -1.2686    1.3949 C   0  0  0  0  0  0  0  0  0  0  0  0
    7.5442   -1.2733    1.5211 C   0  0  0  0  0  0  0  0  0  0  0  0
   10.0944    1.5118    0.0917 H   0  0  0  0  0  0  0  0  0  0  0  0
   11.6206    0.6083    0.4185 H   0  0  0  0  0  0  0  0  0  0  0  0
   10.5752    0.2430   -1.0442 H   0  0  0  0  0  0  0  0  0  0  0  0
    8.2753    1.1324   -0.7719 H   0  0  0  0  0  0  0  0  0  0  0  0
    5.8076    1.0944   -0.9538 H   0  0  0  0  0  0  0  0  0  0  0  0
    1.5074   -1.7504   -1.4539 H   0  0  0  0  0  0  0  0  0  0  0  0
   -0.9871   -1.7713   -1.7558 H   0  0  0  0  0  0  0  0  0  0  0  0
   -2.9638    1.6534    0.4197 H   0  0  0  0  0  0  0  0  0  0  0  0
   -7.3462    3.0410   -0.3160 H   0  0  0  0  0  0  0  0  0  0  0  0
   -5.7907    3.7632   -0.7328 H   0  0  0  0  0  0  0  0  0  0  0  0
   -6.2947    2.3386   -1.6545 H   0  0  0  0  0  0  0  0  0  0  0  0
   -4.6652    3.1041    1.9316 H   0  0  0  0  0  0  0  0  0  0  0  0
   -6.4402    3.2001    1.8733 H   0  0  0  0  0  0  0  0  0  0  0  0
   -5.6597    1.7019    2.4270 H   0  0  0  0  0  0  0  0  0  0  0  0
   -7.4660    0.6493   -0.2875 H   0  0  0  0  0  0  0  0  0  0  0  0
   -8.6897   -1.3602   -1.0793 H   0  0  0  0  0  0  0  0  0  0  0  0
   -7.4702   -3.3941   -1.6820 H   0  0  0  0  0  0  0  0  0  0  0  0
   -5.0028   -3.4108   -1.4920 H   0  0  0  0  0  0  0  0  0  0  0  0
   -2.9298   -2.3405   -0.9555 H   0  0  0  0  0  0  0  0  0  0  0  0
   -1.3191    0.9694    1.4847 H   0  0  0  0  0  0  0  0  0  0  0  0
    1.1522    0.9595    1.7461 H   0  0  0  0  0  0  0  0  0  0  0  0
    5.5863   -1.9597    2.0198 H   0  0  0  0  0  0  0  0  0  0  0  0
    8.0518   -1.9363    2.2155 H   0  0  0  0  0  0  0  0  0  0  0  0
  1  2  1  0
  2  3  2  0
  2  4  1  0
  4  5  2  0
  5  6  1  0
  6  7  2  0
  7  8  1  0
  8  9  3  0
  9 10  1  0
 10 11  2  0
 11 12  1  0
 12 13  2  0
 13 14  1  0
 14 15  2  0
 15 16  1  0
 16 17  1  0
 17 18  1  0
 17 19  1  0
 16 20  2  0
 20 21  1  0
 21 22  2  0
 22 23  1  0
 23 24  2  0
 24 25  1  0
 25 26  2  0
 13 27  1  0
 27 28  2  0
  7 29  1  0
 29 30  2  0
 30  4  1  0
 28 10  1  0
 26 14  1  0
 25 20  1  0
  1 31  1  0
  1 32  1  0
  1 33  1  0
  5 34  1  0
  6 35  1  0
 11 36  1  0
 12 37  1  0
 15 38  1  0
 18 39  1  0
 18 40  1  0
 18 41  1  0
 19 42  1  0
 19 43  1  0
 19 44  1  0
 21 45  1  0
 22 46  1  0
 23 47  1  0
 24 48  1  0
 26 49  1  0
 27 50  1  0
 28 51  1  0
 29 52  1  0
 30 53  1  0
M  END
