
     RDKit          3D

 56 58  0  0  0  0  0  0  0  0999 V2000
    9.4179    0.1286    1.0731 C   0  0  0  0  0  0  0  0  0  0  0  0
    8.3778    1.0622    0.7561 N   0  0  0  0  0  0  0  0  0  0  0  0
    8.5402    2.4623    1.0387 C   0  0  0  0  0  0  0  0  0  0  0  0
    7.1694    0.6187    0.1660 C   0  0  0  0  0  0  0  0  0  0  0  0
    5.9712    0.6066    0.8588 C   0  0  0  0  0  0  0  0  0  0  0  0
    4.7750    0.1885    0.3274 C   0  0  0  0  0  0  0  0  0  0  0  0
    4.7362   -0.2501   -0.9687 C   0  0  0  0  0  0  0  0  0  0  0  0
    3.5162   -0.6933   -1.5987 C   0  0  0  0  0  0  0  0  0  0  0  0
    2.3223   -0.7798   -1.0766 C   0  0  0  0  0  0  0  0  0  0  0  0
    1.1795   -1.2463   -1.8426 C   0  0  0  0  0  0  0  0  0  0  0  0
   -0.0149   -1.3362   -1.3413 C   0  0  0  0  0  0  0  0  0  0  0  0
   -0.4216   -0.9936    0.0494 C   0  0  0  0  0  0  0  0  0  0  0  0
   -1.8675   -0.5143   -0.0713 C   0  0  0  0  0  0  0  0  0  0  0  0
   -2.3799   -1.2360   -1.2360 C   0  0  0  0  0  0  0  0  0  0  0  0
   -3.6745   -1.3838   -1.5502 C   0  0  0  0  0  0  0  0  0  0  0  0
   -4.7496   -0.8339   -0.7560 C   0  0  0  0  0  0  0  0  0  0  0  0
   -5.8345   -1.6432   -0.3970 C   0  0  0  0  0  0  0  0  0  0  0  0
   -6.8897   -1.1500    0.3453 C   0  0  0  0  0  0  0  0  0  0  0  0
   -6.9175    0.1538    0.7617 C   0  0  0  0  0  0  0  0  0  0  0  0
   -7.9840    0.6937    1.5318 N   0  0  0  0  0  0  0  0  0  0  0  0
   -9.1262   -0.0808    1.9699 C   0  0  0  0  0  0  0  0  0  0  0  0
   -7.9320    2.1110    1.9002 C   0  0  0  0  0  0  0  0  0  0  0  0
   -5.8626    0.9817    0.4247 C   0  0  0  0  0  0  0  0  0  0  0  0
   -4.8187    0.4652   -0.3196 C   0  0  0  0  0  0  0  0  0  0  0  0
   -1.2578   -1.7835   -2.0014 C   0  0  0  0  0  0  0  0  0  0  0  0
   -1.3102   -2.5011   -3.0284 O   0  0  0  0  0  0  0  0  0  0  0  0
    5.9175   -0.2495   -1.6803 C   0  0  0  0  0  0  0  0  0  0  0  0
    7.1167    0.1693   -1.1491 C   0  0  0  0  0  0  0  0  0  0  0  0
    9.8601   -0.2364    0.1135 H   0  0  0  0  0  0  0  0  0  0  0  0
    9.0956   -0.7407    1.6512 H   0  0  0  0  0  0  0  0  0  0  0  0
   10.2687    0.6676    1.5810 H   0  0  0  0  0  0  0  0  0  0  0  0
    8.7055    3.0220    0.0776 H   0  0  0  0  0  0  0  0  0  0  0  0
    9.4109    2.6825    1.6797 H   0  0  0  0  0  0  0  0  0  0  0  0
    7.5982    2.8633    1.4901 H   0  0  0  0  0  0  0  0  0  0  0  0
    6.0121    0.9609    1.9028 H   0  0  0  0  0  0  0  0  0  0  0  0
    3.8991    0.2251    0.9584 H   0  0  0  0  0  0  0  0  0  0  0  0
    3.5700   -1.0047   -2.6606 H   0  0  0  0  0  0  0  0  0  0  0  0
    2.2140   -0.4967   -0.0447 H   0  0  0  0  0  0  0  0  0  0  0  0
    1.3112   -1.5367   -2.8849 H   0  0  0  0  0  0  0  0  0  0  0  0
   -0.3049   -1.8801    0.6765 H   0  0  0  0  0  0  0  0  0  0  0  0
    0.2140   -0.1563    0.4228 H   0  0  0  0  0  0  0  0  0  0  0  0
   -2.3859   -0.8949    0.8552 H   0  0  0  0  0  0  0  0  0  0  0  0
   -1.8259    0.5701   -0.1367 H   0  0  0  0  0  0  0  0  0  0  0  0
   -3.8723   -1.9664   -2.4674 H   0  0  0  0  0  0  0  0  0  0  0  0
   -5.8348   -2.6589   -0.7153 H   0  0  0  0  0  0  0  0  0  0  0  0
   -7.7359   -1.7791    0.6225 H   0  0  0  0  0  0  0  0  0  0  0  0
   -9.4306   -0.8605    1.2558 H   0  0  0  0  0  0  0  0  0  0  0  0
   -8.9565   -0.5636    2.9802 H   0  0  0  0  0  0  0  0  0  0  0  0
   -9.9974    0.5894    2.1270 H   0  0  0  0  0  0  0  0  0  0  0  0
   -8.9436    2.4533    2.2558 H   0  0  0  0  0  0  0  0  0  0  0  0
   -7.7418    2.7393    0.9888 H   0  0  0  0  0  0  0  0  0  0  0  0
   -7.1641    2.3039    2.6514 H   0  0  0  0  0  0  0  0  0  0  0  0
   -5.8591    2.0160    0.7395 H   0  0  0  0  0  0  0  0  0  0  0  0
   -4.0321    1.1658   -0.5607 H   0  0  0  0  0  0  0  0  0  0  0  0
    5.8869   -0.6079   -2.7207 H   0  0  0  0  0  0  0  0  0  0  0  0
    8.0402    0.1579   -1.7325 H   0  0  0  0  0  0  0  0  0  0  0  0
  1  2  1  0
  2  3  1  0
  2  4  1  0
  4  5  2  0
  5  6  1  0
  6  7  2  0
  7  8  1  0
  8  9  2  0
  9 10  1  0
 10 11  2  0
 11 12  1  0
 12 13  1  0
 13 14  1  0
 14 15  2  0
 15 16  1  0
 16 17  2  0
 17 18  1  0
 18 19  2  0
 19 20  1  0
 20 21  1  0
 20 22  1  0
 19 23  1  0
 23 24  2  0
 14 25  1  0
 25 26  2  0
  7 27  1  0
 27 28  2  0
 28  4  1  0
 25 11  1  0
 24 16  1  0
  1 29  1  0
  1 30  1  0
  1 31  1  0
  3 32  1  0
  3 33  1  0
  3 34  1  0
  5 35  1  0
  6 36  1  0
  8 37  1  0
  9 38  1  0
 10 39  1  0
 12 40  1  0
 12 41  1  0
 13 42  1  0
 13 43  1  0
 15 44  1  0
 17 45  1  0
 18 46  1  0
 21 47  1  0
 21 48  1  0
 21 49  1  0
 22 50  1  0
 22 51  1  0
 22 52  1  0
 23 53  1  0
 24 54  1  0
 27 55  1  0
 28 56  1  0
M  END
