
     RDKit          3D

 56 62  0  0  0  0  0  0  0  0999 V2000
    1.9323    0.9078   -2.8208 O   0  0  0  0  0  0  0  0  0  0  0  0
    2.7613    0.2787   -1.9171 C   0  0  0  0  0  0  0  0  0  0  0  0
    4.1044    0.1032   -2.1402 C   0  0  0  0  0  0  0  0  0  0  0  0
    4.9144   -0.5254   -1.2294 C   0  0  0  0  0  0  0  0  0  0  0  0
    4.3757   -0.9935   -0.0637 C   0  0  0  0  0  0  0  0  0  0  0  0
    5.1775   -1.6312    0.8689 C   0  0  0  0  0  0  0  0  0  0  0  0
    4.6548   -2.1094    2.0485 C   0  0  0  0  0  0  0  0  0  0  0  0
    3.3152   -1.9436    2.2895 C   0  0  0  0  0  0  0  0  0  0  0  0
    2.5215   -1.3054    1.3524 C   0  0  0  0  0  0  0  0  0  0  0  0
    3.0513   -0.8265    0.1683 C   0  0  0  0  0  0  0  0  0  0  0  0
    2.1866   -0.1888   -0.7369 C   0  0  0  0  0  0  0  0  0  0  0  0
    0.7921   -0.1863   -0.4305 C   0  0  0  0  0  0  0  0  0  0  0  0
    0.2337   -1.4024   -0.7173 N   0  0  0  0  0  0  0  0  0  0  0  0
   -1.0416   -1.6964   -0.6057 C   0  0  0  0  0  0  0  0  0  0  0  0
   -1.9195   -0.6955   -0.1588 C   0  0  0  0  0  0  0  0  0  0  0  0
   -1.4289    0.5698    0.1439 C   0  0  0  0  0  0  0  0  0  0  0  0
   -0.0339    0.7818   -0.0050 C   0  0  0  0  0  0  0  0  0  0  0  0
    0.5169    2.1283    0.1639 C   0  0  0  0  0  0  0  0  0  0  0  0
    1.8669    2.2992    0.3114 C   0  0  0  0  0  0  0  0  0  0  0  0
    2.3305    3.5681    0.7315 C   0  0  0  0  0  0  0  0  0  0  0  0
    1.4642    4.5906    0.9850 C   0  0  0  0  0  0  0  0  0  0  0  0
    0.1054    4.4081    0.8328 C   0  0  0  0  0  0  0  0  0  0  0  0
   -0.3374    3.1680    0.4181 C   0  0  0  0  0  0  0  0  0  0  0  0
   -1.7342    3.0001    0.0571 C   0  0  0  0  0  0  0  0  0  0  0  0
   -2.3322    1.6559    0.4896 C   0  0  0  0  0  0  0  0  0  0  0  0
   -3.3553   -0.9885   -0.1051 C   0  0  0  0  0  0  0  0  0  0  0  0
   -4.2087   -0.1876    0.6120 C   0  0  0  0  0  0  0  0  0  0  0  0
   -5.4994   -0.6160    0.8731 C   0  0  0  0  0  0  0  0  0  0  0  0
   -5.9487   -1.8371    0.4317 C   0  0  0  0  0  0  0  0  0  0  0  0
   -5.0903   -2.6372   -0.2822 C   0  0  0  0  0  0  0  0  0  0  0  0
   -3.8207   -2.2262   -0.5489 C   0  0  0  0  0  0  0  0  0  0  0  0
   -2.9107   -3.0447   -1.3916 C   0  0  0  0  0  0  0  0  0  0  0  0
   -1.5350   -3.0735   -0.8808 C   0  0  0  0  0  0  0  0  0  0  0  0
    2.3158    1.2630   -3.6949 H   0  0  0  0  0  0  0  0  0  0  0  0
    4.5557    0.4633   -3.0530 H   0  0  0  0  0  0  0  0  0  0  0  0
    5.9745   -0.6744   -1.3835 H   0  0  0  0  0  0  0  0  0  0  0  0
    6.2398   -1.7701    0.6927 H   0  0  0  0  0  0  0  0  0  0  0  0
    5.2624   -2.6099    2.7896 H   0  0  0  0  0  0  0  0  0  0  0  0
    2.8479   -2.3029    3.2076 H   0  0  0  0  0  0  0  0  0  0  0  0
    1.4699   -1.1853    1.5618 H   0  0  0  0  0  0  0  0  0  0  0  0
    2.5786    1.5749    0.1880 H   0  0  0  0  0  0  0  0  0  0  0  0
    3.4158    3.6879    0.8423 H   0  0  0  0  0  0  0  0  0  0  0  0
    1.8612    5.5471    1.3063 H   0  0  0  0  0  0  0  0  0  0  0  0
   -0.5541    5.2382    1.0429 H   0  0  0  0  0  0  0  0  0  0  0  0
   -1.8074    3.0942   -1.0731 H   0  0  0  0  0  0  0  0  0  0  0  0
   -2.4019    3.7895    0.4850 H   0  0  0  0  0  0  0  0  0  0  0  0
   -3.2354    1.7099   -0.1907 H   0  0  0  0  0  0  0  0  0  0  0  0
   -2.4738    1.8408    1.5549 H   0  0  0  0  0  0  0  0  0  0  0  0
   -3.9449    0.6841    1.0714 H   0  0  0  0  0  0  0  0  0  0  0  0
   -6.2143   -0.0079    1.4375 H   0  0  0  0  0  0  0  0  0  0  0  0
   -6.9501   -2.1855    0.6265 H   0  0  0  0  0  0  0  0  0  0  0  0
   -5.4375   -3.6151   -0.6377 H   0  0  0  0  0  0  0  0  0  0  0  0
   -3.2974   -4.0888   -1.4952 H   0  0  0  0  0  0  0  0  0  0  0  0
   -2.9615   -2.6268   -2.4294 H   0  0  0  0  0  0  0  0  0  0  0  0
   -0.8763   -3.5314   -1.6647 H   0  0  0  0  0  0  0  0  0  0  0  0
   -1.4756   -3.6389    0.0722 H   0  0  0  0  0  0  0  0  0  0  0  0
  1  2  1  0
  2  3  2  0
  3  4  1  0
  4  5  2  0
  5  6  1  0
  6  7  2  0
  7  8  1  0
  8  9  2  0
  9 10  1  0
 10 11  2  0
 11 12  1  0
 12 13  2  0
 13 14  1  0
 14 15  2  0
 15 16  1  0
 16 17  2  0
 17 18  1  0
 18 19  2  0
 19 20  1  0
 20 21  2  0
 21 22  1  0
 22 23  2  0
 23 24  1  0
 24 25  1  0
 15 26  1  0
 26 27  2  0
 27 28  1  0
 28 29  2  0
 29 30  1  0
 30 31  2  0
 31 32  1  0
 32 33  1  0
 11  2  1  0
 17 12  1  0
 23 18  1  0
 31 26  1  0
 10  5  1  0
 33 14  1  0
 25 16  1  0
  1 34  1  0
  3 35  1  0
  4 36  1  0
  6 37  1  0
  7 38  1  0
  8 39  1  0
  9 40  1  0
 19 41  1  0
 20 42  1  0
 21 43  1  0
 22 44  1  0
 24 45  1  0
 24 46  1  0
 25 47  1  0
 25 48  1  0
 27 49  1  0
 28 50  1  0
 29 51  1  0
 30 52  1  0
 32 53  1  0
 32 54  1  0
 33 55  1  0
 33 56  1  0
M  END
