
     RDKit          3D

 59 65  0  0  0  0  0  0  0  0999 V2000
   -6.0783    1.9502   -4.3146 C   0  0  0  0  0  0  0  0  0  0  0  0
   -6.6708    1.3067   -3.2402 C   0  0  0  0  0  0  0  0  0  0  0  0
   -5.9192    0.7864   -2.2023 C   0  0  0  0  0  0  0  0  0  0  0  0
   -4.5456    0.8975   -2.2129 C   0  0  0  0  0  0  0  0  0  0  0  0
   -3.7579    0.3469   -1.1156 C   0  0  0  0  0  0  0  0  0  0  0  0
   -4.3681   -0.2717   -0.0884 N   0  0  0  0  0  0  0  0  0  0  0  0
   -3.7151   -0.7982    0.9471 C   0  0  0  0  0  0  0  0  0  0  0  0
   -4.3767   -1.4685    2.0600 C   0  0  0  0  0  0  0  0  0  0  0  0
   -3.6722   -1.9957    3.1039 C   0  0  0  0  0  0  0  0  0  0  0  0
   -4.2704   -2.6377    4.1749 C   0  0  0  0  0  0  0  0  0  0  0  0
   -5.6511   -2.7400    4.1684 C   0  0  0  0  0  0  0  0  0  0  0  0
   -6.3932   -2.2205    3.1332 C   0  0  0  0  0  0  0  0  0  0  0  0
   -5.7504   -1.5780    2.0677 C   0  0  0  0  0  0  0  0  0  0  0  0
   -2.3578   -0.6901    0.9395 N   0  0  0  0  0  0  0  0  0  0  0  0
   -1.6934   -0.0836   -0.0585 C   0  0  0  0  0  0  0  0  0  0  0  0
   -0.2197    0.0217   -0.0450 C   0  0  0  0  0  0  0  0  0  0  0  0
    0.4494   -0.5253    1.0293 C   0  0  0  0  0  0  0  0  0  0  0  0
    1.8433   -0.4475    1.0812 C   0  0  0  0  0  0  0  0  0  0  0  0
    2.5634    0.1654    0.0793 C   0  0  0  0  0  0  0  0  0  0  0  0
    3.9802    0.2604    0.1032 N   0  0  0  0  0  0  0  0  0  0  0  0
    4.8280   -0.2347   -0.8334 C   0  0  0  0  0  0  0  0  0  0  0  0
    4.5517   -0.9254   -1.9958 C   0  0  0  0  0  0  0  0  0  0  0  0
    5.5832   -1.3446   -2.8198 C   0  0  0  0  0  0  0  0  0  0  0  0
    6.8955   -1.0796   -2.4928 C   0  0  0  0  0  0  0  0  0  0  0  0
    7.1295   -0.3914   -1.3305 C   0  0  0  0  0  0  0  0  0  0  0  0
    6.1194    0.0326   -0.5005 C   0  0  0  0  0  0  0  0  0  0  0  0
    6.0860    0.7305    0.7050 C   0  0  0  0  0  0  0  0  0  0  0  0
    7.1091    1.2290    1.4627 C   0  0  0  0  0  0  0  0  0  0  0  0
    6.8048    1.8939    2.6381 C   0  0  0  0  0  0  0  0  0  0  0  0
    5.4741    2.0247    2.9947 C   0  0  0  0  0  0  0  0  0  0  0  0
    4.4481    1.5046    2.2002 C   0  0  0  0  0  0  0  0  0  0  0  0
    4.7629    0.8487    1.0394 C   0  0  0  0  0  0  0  0  0  0  0  0
    1.8722    0.7048   -0.9845 C   0  0  0  0  0  0  0  0  0  0  0  0
    0.4755    0.6295   -1.0412 C   0  0  0  0  0  0  0  0  0  0  0  0
   -2.4228    0.4242   -1.0709 N   0  0  0  0  0  0  0  0  0  0  0  0
   -3.9535    1.5331   -3.2732 C   0  0  0  0  0  0  0  0  0  0  0  0
   -4.7022    2.0637   -4.3293 C   0  0  0  0  0  0  0  0  0  0  0  0
   -6.6386    2.3668   -5.1400 H   0  0  0  0  0  0  0  0  0  0  0  0
   -7.7460    1.2208   -3.2338 H   0  0  0  0  0  0  0  0  0  0  0  0
   -6.3679    0.2777   -1.3503 H   0  0  0  0  0  0  0  0  0  0  0  0
   -2.5955   -1.9093    3.0970 H   0  0  0  0  0  0  0  0  0  0  0  0
   -3.7395   -3.0553    4.9981 H   0  0  0  0  0  0  0  0  0  0  0  0
   -6.1853   -3.2278    4.9711 H   0  0  0  0  0  0  0  0  0  0  0  0
   -7.4629   -2.2775    3.0883 H   0  0  0  0  0  0  0  0  0  0  0  0
   -6.3186   -1.1612    1.2408 H   0  0  0  0  0  0  0  0  0  0  0  0
   -0.0952   -1.0203    1.8434 H   0  0  0  0  0  0  0  0  0  0  0  0
    2.3648   -0.8770    1.9241 H   0  0  0  0  0  0  0  0  0  0  0  0
    3.5025   -1.1362   -2.2554 H   0  0  0  0  0  0  0  0  0  0  0  0
    5.3242   -1.8907   -3.7349 H   0  0  0  0  0  0  0  0  0  0  0  0
    7.7069   -1.4130   -3.1472 H   0  0  0  0  0  0  0  0  0  0  0  0
    8.1504   -0.1739   -1.0566 H   0  0  0  0  0  0  0  0  0  0  0  0
    8.1449    1.1343    1.1973 H   0  0  0  0  0  0  0  0  0  0  0  0
    7.5944    2.3122    3.2807 H   0  0  0  0  0  0  0  0  0  0  0  0
    5.2606    2.5497    3.9202 H   0  0  0  0  0  0  0  0  0  0  0  0
    3.4307    1.6213    2.5016 H   0  0  0  0  0  0  0  0  0  0  0  0
    2.3986    1.1933   -1.7895 H   0  0  0  0  0  0  0  0  0  0  0  0
   -0.0846    1.0472   -1.8684 H   0  0  0  0  0  0  0  0  0  0  0  0
   -2.8732    1.6312   -3.3010 H   0  0  0  0  0  0  0  0  0  0  0  0
   -4.2287    2.5646   -5.1639 H   0  0  0  0  0  0  0  0  0  0  0  0
  1  2  2  0
  2  3  1  0
  3  4  2  0
  4  5  1  0
  5  6  2  0
  6  7  1  0
  7  8  1  0
  8  9  2  0
  9 10  1  0
 10 11  2  0
 11 12  1  0
 12 13  2  0
  7 14  2  0
 14 15  1  0
 15 16  1  0
 16 17  2  0
 17 18  1  0
 18 19  2  0
 19 20  1  0
 20 21  1  0
 21 22  2  0
 22 23  1  0
 23 24  2  0
 24 25  1  0
 25 26  2  0
 26 27  1  0
 27 28  2  0
 28 29  1  0
 29 30  2  0
 30 31  1  0
 31 32  2  0
 19 33  1  0
 33 34  2  0
 15 35  2  0
  4 36  1  0
 36 37  2  0
 37  1  1  0
 35  5  1  0
 13  8  1  0
 34 16  1  0
 32 20  1  0
 26 21  1  0
 32 27  1  0
  1 38  1  0
  2 39  1  0
  3 40  1  0
  9 41  1  0
 10 42  1  0
 11 43  1  0
 12 44  1  0
 13 45  1  0
 17 46  1  0
 18 47  1  0
 22 48  1  0
 23 49  1  0
 24 50  1  0
 25 51  1  0
 28 52  1  0
 29 53  1  0
 30 54  1  0
 31 55  1  0
 33 56  1  0
 34 57  1  0
 36 58  1  0
 37 59  1  0
M  END
