
     RDKit          3D

 59 61  0  0  0  0  0  0  0  0999 V2000
   -4.3006    3.4058   -1.7854 C   0  0  0  0  0  0  0  0  0  0  0  0
   -4.1733    1.9482   -2.0953 C   0  0  0  0  0  0  0  0  0  0  0  0
   -2.9487    1.3921   -1.7659 O   0  0  0  0  0  0  0  0  0  0  0  0
   -2.3648    1.3341   -0.5326 C   0  0  0  0  0  0  0  0  0  0  0  0
   -3.0870    1.8616    0.3962 O   0  0  0  0  0  0  0  0  0  0  0  0
   -1.0910    0.7758   -0.1599 C   0  0  0  0  0  0  0  0  0  0  0  0
   -0.7637   -0.5024    0.2200 C   0  0  0  0  0  0  0  0  0  0  0  0
   -1.7257   -1.6334    0.2891 C   0  0  0  0  0  0  0  0  0  0  0  0
   -1.3488   -2.8139    0.6638 C   0  0  0  0  0  0  0  0  0  0  0  0
   -2.2563   -3.9365    0.7416 C   0  0  0  0  0  0  0  0  0  0  0  0
   -1.7550   -5.1967    1.1589 C   0  0  0  0  0  0  0  0  0  0  0  0
   -2.6171   -6.2601    1.2326 C   0  0  0  0  0  0  0  0  0  0  0  0
   -3.9443   -6.1436    0.9165 C   0  0  0  0  0  0  0  0  0  0  0  0
   -4.4580   -4.9422    0.5111 C   0  0  0  0  0  0  0  0  0  0  0  0
   -3.5881   -3.8653    0.4357 C   0  0  0  0  0  0  0  0  0  0  0  0
    0.5066   -0.5328    0.4966 O   0  0  0  0  0  0  0  0  0  0  0  0
    1.0603    0.6625    0.3253 C   0  0  0  0  0  0  0  0  0  0  0  0
    2.4261    0.9563    0.5485 N   0  0  0  0  0  0  0  0  0  0  0  0
    3.3398   -0.0736    1.0111 C   0  0  0  0  0  0  0  0  0  0  0  0
    4.7223    0.4355    1.2505 C   0  0  0  0  0  0  0  0  0  0  0  0
    5.6895    0.1875    0.1327 C   0  0  0  0  0  0  0  0  0  0  0  0
    5.7984   -1.2605   -0.2367 C   0  0  0  0  0  0  0  0  0  0  0  0
    4.6187   -2.0458    0.3312 C   0  0  0  0  0  0  0  0  0  0  0  0
    3.3174   -1.2744    0.1095 C   0  0  0  0  0  0  0  0  0  0  0  0
    0.0859    1.5103   -0.0875 C   0  0  0  0  0  0  0  0  0  0  0  0
    0.1991    2.9268   -0.3940 C   0  0  0  0  0  0  0  0  0  0  0  0
    1.2685    3.5602   -0.3078 O   0  0  0  0  0  0  0  0  0  0  0  0
   -0.9131    3.6690   -0.8102 O   0  0  0  0  0  0  0  0  0  0  0  0
   -0.8495    5.0473   -1.1118 C   0  0  0  0  0  0  0  0  0  0  0  0
   -0.4006    5.8491    0.1019 C   0  0  0  0  0  0  0  0  0  0  0  0
   -5.3912    3.6642   -1.9382 H   0  0  0  0  0  0  0  0  0  0  0  0
   -4.0908    3.6565   -0.7348 H   0  0  0  0  0  0  0  0  0  0  0  0
   -3.7664    4.0723   -2.5078 H   0  0  0  0  0  0  0  0  0  0  0  0
   -5.0336    1.4013   -1.6640 H   0  0  0  0  0  0  0  0  0  0  0  0
   -4.2947    1.8460   -3.2125 H   0  0  0  0  0  0  0  0  0  0  0  0
   -2.7418   -1.4416    0.0146 H   0  0  0  0  0  0  0  0  0  0  0  0
   -0.2992   -2.9497    0.9304 H   0  0  0  0  0  0  0  0  0  0  0  0
   -0.7078   -5.2423    1.3950 H   0  0  0  0  0  0  0  0  0  0  0  0
   -2.2067   -7.2331    1.5597 H   0  0  0  0  0  0  0  0  0  0  0  0
   -4.6163   -6.9800    0.9757 H   0  0  0  0  0  0  0  0  0  0  0  0
   -5.4869   -4.7760    0.2501 H   0  0  0  0  0  0  0  0  0  0  0  0
   -4.0086   -2.9168    0.1126 H   0  0  0  0  0  0  0  0  0  0  0  0
    2.8197    1.8988    0.3957 H   0  0  0  0  0  0  0  0  0  0  0  0
    2.9752   -0.4513    2.0169 H   0  0  0  0  0  0  0  0  0  0  0  0
    5.1763   -0.0171    2.1709 H   0  0  0  0  0  0  0  0  0  0  0  0
    4.6825    1.5298    1.4544 H   0  0  0  0  0  0  0  0  0  0  0  0
    5.3643    0.7515   -0.7663 H   0  0  0  0  0  0  0  0  0  0  0  0
    6.6907    0.5347    0.4733 H   0  0  0  0  0  0  0  0  0  0  0  0
    6.7282   -1.6932    0.2248 H   0  0  0  0  0  0  0  0  0  0  0  0
    5.8637   -1.3647   -1.3293 H   0  0  0  0  0  0  0  0  0  0  0  0
    4.4800   -3.0095   -0.1872 H   0  0  0  0  0  0  0  0  0  0  0  0
    4.7167   -2.1834    1.4200 H   0  0  0  0  0  0  0  0  0  0  0  0
    3.1762   -1.0401   -0.9603 H   0  0  0  0  0  0  0  0  0  0  0  0
    2.5129   -1.9765    0.4393 H   0  0  0  0  0  0  0  0  0  0  0  0
   -1.8611    5.3670   -1.4244 H   0  0  0  0  0  0  0  0  0  0  0  0
   -0.1613    5.2804   -1.9342 H   0  0  0  0  0  0  0  0  0  0  0  0
   -0.2985    5.2143    1.0080 H   0  0  0  0  0  0  0  0  0  0  0  0
    0.5201    6.4028   -0.0904 H   0  0  0  0  0  0  0  0  0  0  0  0
   -1.1885    6.6145    0.3225 H   0  0  0  0  0  0  0  0  0  0  0  0
  1  2  1  0
  2  3  1  0
  3  4  1  0
  4  5  2  0
  4  6  1  0
  6  7  2  0
  7  8  1  0
  8  9  2  3
  9 10  1  0
 10 11  2  0
 11 12  1  0
 12 13  2  0
 13 14  1  0
 14 15  2  0
  7 16  1  0
 16 17  1  0
 17 18  1  0
 18 19  1  0
 19 20  1  0
 20 21  1  0
 21 22  1  0
 22 23  1  0
 23 24  1  0
 17 25  2  0
 25 26  1  0
 26 27  2  0
 26 28  1  0
 28 29  1  0
 29 30  1  0
 25  6  1  0
 15 10  1  0
 24 19  1  0
  1 31  1  0
  1 32  1  0
  1 33  1  0
  2 34  1  0
  2 35  1  0
  8 36  1  0
  9 37  1  0
 11 38  1  0
 12 39  1  0
 13 40  1  0
 14 41  1  0
 15 42  1  0
 18 43  1  0
 19 44  1  0
 20 45  1  0
 20 46  1  0
 21 47  1  0
 21 48  1  0
 22 49  1  0
 22 50  1  0
 23 51  1  0
 23 52  1  0
 24 53  1  0
 24 54  1  0
 29 55  1  0
 29 56  1  0
 30 57  1  0
 30 58  1  0
 30 59  1  0
M  END
