
     RDKit          3D

 54 58  0  0  0  0  0  0  0  0999 V2000
    6.9320   -2.7295    0.5138 C   0  0  0  0  0  0  0  0  0  0  0  0
    5.5855   -2.0590    0.5050 C   0  0  0  0  0  0  0  0  0  0  0  0
    4.5255   -2.6415   -0.1470 C   0  0  0  0  0  0  0  0  0  0  0  0
    3.2961   -2.0248   -0.1518 C   0  0  0  0  0  0  0  0  0  0  0  0
    3.0939   -0.8216    0.4882 C   0  0  0  0  0  0  0  0  0  0  0  0
    1.7846   -0.2026    0.4612 C   0  0  0  0  0  0  0  0  0  0  0  0
    1.5248    0.9983    1.0487 C   0  0  0  0  0  0  0  0  0  0  0  0
    0.2311    1.5505    0.9779 C   0  0  0  0  0  0  0  0  0  0  0  0
    0.0385    2.7626    1.7581 C   0  0  0  0  0  0  0  0  0  0  0  0
   -0.7847    2.7465    2.8602 C   0  0  0  0  0  0  0  0  0  0  0  0
   -0.9364    3.8318    3.6917 C   0  0  0  0  0  0  0  0  0  0  0  0
   -0.2285    4.9742    3.3967 C   0  0  0  0  0  0  0  0  0  0  0  0
    0.6037    5.0095    2.2943 C   0  0  0  0  0  0  0  0  0  0  0  0
    0.7369    3.9125    1.4804 C   0  0  0  0  0  0  0  0  0  0  0  0
    1.7952    3.9699    0.0867 Cl  0  0  0  0  0  0  0  0  0  0  0  0
   -0.7653    0.8776    0.3120 C   0  0  0  0  0  0  0  0  0  0  0  0
   -2.0277    1.3808    0.1861 C   0  0  0  0  0  0  0  0  0  0  0  0
   -2.3711    2.6473    0.6865 N   0  0  0  0  0  0  0  0  0  0  0  0
   -2.9704    0.6725   -0.5030 N   0  0  0  0  0  0  0  0  0  0  0  0
   -2.7421   -0.4960   -1.0742 C   0  0  0  0  0  0  0  0  0  0  0  0
   -3.6917   -1.2569   -1.8041 N   0  0  0  0  0  0  0  0  0  0  0  0
   -4.1847   -2.5878   -1.6460 C   0  0  0  0  0  0  0  0  0  0  0  0
   -4.3125   -3.0420   -3.0946 C   0  0  0  0  0  0  0  0  0  0  0  0
   -4.9505   -1.8454   -3.7316 C   0  0  0  0  0  0  0  0  0  0  0  0
   -4.3841   -0.6949   -2.9711 C   0  0  0  0  0  0  0  0  0  0  0  0
   -1.4619   -1.0199   -0.9589 C   0  0  0  0  0  0  0  0  0  0  0  0
   -1.1863   -2.2752   -1.5336 C   0  0  0  0  0  0  0  0  0  0  0  0
   -0.9357   -3.3310   -2.0295 N   0  0  0  0  0  0  0  0  0  0  0  0
   -0.4563   -0.3468   -0.2713 C   0  0  0  0  0  0  0  0  0  0  0  0
    0.7713   -0.8275   -0.1773 N   0  0  0  0  0  0  0  0  0  0  0  0
    4.1571   -0.2384    1.1411 C   0  0  0  0  0  0  0  0  0  0  0  0
    5.3968   -0.8624    1.1447 C   0  0  0  0  0  0  0  0  0  0  0  0
    6.9687   -3.4280    1.3805 H   0  0  0  0  0  0  0  0  0  0  0  0
    7.7551   -1.9997    0.6441 H   0  0  0  0  0  0  0  0  0  0  0  0
    7.0740   -3.3218   -0.4074 H   0  0  0  0  0  0  0  0  0  0  0  0
    4.6586   -3.5817   -0.6559 H   0  0  0  0  0  0  0  0  0  0  0  0
    2.4964   -2.5254   -0.6786 H   0  0  0  0  0  0  0  0  0  0  0  0
    2.2857    1.5473    1.5717 H   0  0  0  0  0  0  0  0  0  0  0  0
   -1.3529    1.8330    3.1111 H   0  0  0  0  0  0  0  0  0  0  0  0
   -1.5992    3.7991    4.5680 H   0  0  0  0  0  0  0  0  0  0  0  0
   -0.3412    5.8465    4.0522 H   0  0  0  0  0  0  0  0  0  0  0  0
    1.1472    5.9469    2.1044 H   0  0  0  0  0  0  0  0  0  0  0  0
   -1.8620    3.4847    0.3548 H   0  0  0  0  0  0  0  0  0  0  0  0
   -3.1418    2.7451    1.3697 H   0  0  0  0  0  0  0  0  0  0  0  0
   -5.2087   -2.6407   -1.2138 H   0  0  0  0  0  0  0  0  0  0  0  0
   -3.5461   -3.2463   -1.0504 H   0  0  0  0  0  0  0  0  0  0  0  0
   -3.3152   -3.2161   -3.5546 H   0  0  0  0  0  0  0  0  0  0  0  0
   -4.9468   -3.9277   -3.2149 H   0  0  0  0  0  0  0  0  0  0  0  0
   -6.0497   -1.8155   -3.6477 H   0  0  0  0  0  0  0  0  0  0  0  0
   -4.6602   -1.7132   -4.8100 H   0  0  0  0  0  0  0  0  0  0  0  0
   -5.1483    0.0211   -2.6417 H   0  0  0  0  0  0  0  0  0  0  0  0
   -3.6053   -0.1440   -3.5492 H   0  0  0  0  0  0  0  0  0  0  0  0
    4.0820    0.7092    1.6716 H   0  0  0  0  0  0  0  0  0  0  0  0
    6.2265   -0.4034    1.6567 H   0  0  0  0  0  0  0  0  0  0  0  0
  1  2  1  0
  2  3  2  0
  3  4  1  0
  4  5  2  0
  5  6  1  0
  6  7  2  0
  7  8  1  0
  8  9  1  0
  9 10  2  0
 10 11  1  0
 11 12  2  0
 12 13  1  0
 13 14  2  0
 14 15  1  0
  8 16  2  0
 16 17  1  0
 17 18  1  0
 17 19  2  0
 19 20  1  0
 20 21  1  0
 21 22  1  0
 22 23  1  0
 23 24  1  0
 24 25  1  0
 20 26  2  0
 26 27  1  0
 27 28  3  0
 26 29  1  0
 29 30  2  0
  5 31  1  0
 31 32  2  0
 32  2  1  0
 30  6  1  0
 14  9  1  0
 29 16  1  0
 25 21  1  0
  1 33  1  0
  1 34  1  0
  1 35  1  0
  3 36  1  0
  4 37  1  0
  7 38  1  0
 10 39  1  0
 11 40  1  0
 12 41  1  0
 13 42  1  0
 18 43  1  0
 18 44  1  0
 22 45  1  0
 22 46  1  0
 23 47  1  0
 23 48  1  0
 24 49  1  0
 24 50  1  0
 25 51  1  0
 25 52  1  0
 31 53  1  0
 32 54  1  0
M  END
