
     RDKit          3D

 34 36  0  0  0  0  0  0  0  0999 V2000
    2.5571   -3.8660   -0.3296 C   0  0  0  0  0  0  0  0  0  0  0  0
    2.0644   -2.5671   -0.2022 O   0  0  0  0  0  0  0  0  0  0  0  0
    2.3521   -1.5253   -1.0449 C   0  0  0  0  0  0  0  0  0  0  0  0
    3.1223   -1.7662   -2.0080 O   0  0  0  0  0  0  0  0  0  0  0  0
    1.8172   -0.1786   -0.8728 C   0  0  0  0  0  0  0  0  0  0  0  0
    2.1245    0.8898   -1.6778 N   0  0  0  0  0  0  0  0  0  0  0  0
    1.4988    1.9899   -1.2484 C   0  0  0  0  0  0  0  0  0  0  0  0
    1.4463    3.3049   -1.6589 C   0  0  0  0  0  0  0  0  0  0  0  0
    0.7111    4.2248   -1.0131 N   0  0  0  0  0  0  0  0  0  0  0  0
   -0.0126    3.8795    0.0798 C   0  0  0  0  0  0  0  0  0  0  0  0
   -0.7831    4.8696    0.7474 N   0  0  0  0  0  0  0  0  0  0  0  0
    0.0368    2.5987    0.4818 N   0  0  0  0  0  0  0  0  0  0  0  0
    0.7660    1.6543   -0.1472 C   0  0  0  0  0  0  0  0  0  0  0  0
    0.9845    0.3207    0.0508 N   0  0  0  0  0  0  0  0  0  0  0  0
    0.3708   -0.3895    1.1527 C   0  0  0  0  0  0  0  0  0  0  0  0
   -1.0141   -0.8430    0.8421 C   0  0  0  0  0  0  0  0  0  0  0  0
   -1.3187   -2.0579    0.2885 C   0  0  0  0  0  0  0  0  0  0  0  0
   -2.6394   -2.3895    0.0373 C   0  0  0  0  0  0  0  0  0  0  0  0
   -3.6973   -1.5693    0.3092 C   0  0  0  0  0  0  0  0  0  0  0  0
   -3.3982   -0.3435    0.8675 C   0  0  0  0  0  0  0  0  0  0  0  0
   -2.0979    0.0071    1.1252 C   0  0  0  0  0  0  0  0  0  0  0  0
    1.8552   -4.5578   -0.8306 H   0  0  0  0  0  0  0  0  0  0  0  0
    3.4832   -3.8370   -0.9298 H   0  0  0  0  0  0  0  0  0  0  0  0
    2.8448   -4.3171    0.6544 H   0  0  0  0  0  0  0  0  0  0  0  0
    2.0019    3.6339   -2.5213 H   0  0  0  0  0  0  0  0  0  0  0  0
   -0.3851    5.8061    0.9655 H   0  0  0  0  0  0  0  0  0  0  0  0
   -1.7619    4.6810    1.0331 H   0  0  0  0  0  0  0  0  0  0  0  0
    0.9713   -1.2952    1.4143 H   0  0  0  0  0  0  0  0  0  0  0  0
    0.3324    0.2934    2.0133 H   0  0  0  0  0  0  0  0  0  0  0  0
   -0.5343   -2.7646    0.0496 H   0  0  0  0  0  0  0  0  0  0  0  0
   -2.8355   -3.3669   -0.4043 H   0  0  0  0  0  0  0  0  0  0  0  0
   -4.7256   -1.8376    0.1091 H   0  0  0  0  0  0  0  0  0  0  0  0
   -4.2185    0.3451    1.1013 H   0  0  0  0  0  0  0  0  0  0  0  0
   -1.9185    0.9733    1.5661 H   0  0  0  0  0  0  0  0  0  0  0  0
  1  2  1  0
  2  3  1  0
  3  4  2  0
  3  5  1  0
  5  6  2  0
  6  7  1  0
  7  8  2  0
  8  9  1  0
  9 10  2  0
 10 11  1  0
 10 12  1  0
 12 13  2  0
 13 14  1  0
 14 15  1  0
 15 16  1  0
 16 17  2  0
 17 18  1  0
 18 19  2  0
 19 20  1  0
 20 21  2  0
 14  5  1  0
 21 16  1  0
 13  7  1  0
  1 22  1  0
  1 23  1  0
  1 24  1  0
  8 25  1  0
 11 26  1  0
 11 27  1  0
 15 28  1  0
 15 29  1  0
 17 30  1  0
 18 31  1  0
 19 32  1  0
 20 33  1  0
 21 34  1  0
M  END
