
     RDKit          3D

 34 36  0  0  0  0  0  0  0  0999 V2000
    5.3652   -2.4435   -0.4299 C   0  0  0  0  0  0  0  0  0  0  0  0
    4.5955   -1.2465   -0.3469 O   0  0  0  0  0  0  0  0  0  0  0  0
    3.2230   -1.2584   -0.2535 C   0  0  0  0  0  0  0  0  0  0  0  0
    2.6375   -2.3529   -0.2416 O   0  0  0  0  0  0  0  0  0  0  0  0
    2.5405    0.0285   -0.1741 C   0  0  0  0  0  0  0  0  0  0  0  0
    3.2227    1.2267   -0.1900 C   0  0  0  0  0  0  0  0  0  0  0  0
    2.4173    2.3507   -0.1063 C   0  0  0  0  0  0  0  0  0  0  0  0
    3.0200    3.4822   -0.1184 O   0  0  0  0  0  0  0  0  0  0  0  0
    1.1020    2.3429   -0.0167 N   0  0  0  0  0  0  0  0  0  0  0  0
    0.4244    3.6417    0.0628 C   0  0  0  0  0  0  0  0  0  0  0  0
    0.3921    1.1689    0.0016 C   0  0  0  0  0  0  0  0  0  0  0  0
   -0.9432    1.0204    0.0889 C   0  0  0  0  0  0  0  0  0  0  0  0
   -1.4385   -0.2572    0.0900 C   0  0  0  0  0  0  0  0  0  0  0  0
   -2.8560   -0.6777    0.1760 C   0  0  0  0  0  0  0  0  0  0  0  0
   -3.0888   -2.0356    0.1572 C   0  0  0  0  0  0  0  0  0  0  0  0
   -4.3770   -2.5200    0.2327 C   0  0  0  0  0  0  0  0  0  0  0  0
   -5.4012   -1.6059    0.3261 C   0  0  0  0  0  0  0  0  0  0  0  0
   -5.1520   -0.2337    0.3442 C   0  0  0  0  0  0  0  0  0  0  0  0
   -3.8551    0.2304    0.2675 C   0  0  0  0  0  0  0  0  0  0  0  0
   -0.0265   -1.2072   -0.0306 S   0  0  0  0  0  0  0  0  0  0  0  0
    1.1427    0.0324   -0.0787 C   0  0  0  0  0  0  0  0  0  0  0  0
    5.5440   -2.6273   -1.5200 H   0  0  0  0  0  0  0  0  0  0  0  0
    4.8285   -3.2721    0.0420 H   0  0  0  0  0  0  0  0  0  0  0  0
    6.3144   -2.2394    0.1059 H   0  0  0  0  0  0  0  0  0  0  0  0
    4.2816    1.2339   -0.2620 H   0  0  0  0  0  0  0  0  0  0  0  0
    1.0401    4.3798    0.6079 H   0  0  0  0  0  0  0  0  0  0  0  0
   -0.5271    3.5487    0.6540 H   0  0  0  0  0  0  0  0  0  0  0  0
    0.1444    3.9921   -0.9358 H   0  0  0  0  0  0  0  0  0  0  0  0
   -1.6828    1.8520    0.1607 H   0  0  0  0  0  0  0  0  0  0  0  0
   -2.2834   -2.7725    0.0833 H   0  0  0  0  0  0  0  0  0  0  0  0
   -4.5761   -3.6005    0.2187 H   0  0  0  0  0  0  0  0  0  0  0  0
   -6.4309   -1.9458    0.3877 H   0  0  0  0  0  0  0  0  0  0  0  0
   -5.9597    0.4761    0.4175 H   0  0  0  0  0  0  0  0  0  0  0  0
   -3.6377    1.2890    0.2797 H   0  0  0  0  0  0  0  0  0  0  0  0
  1  2  1  0
  2  3  1  0
  3  4  2  0
  3  5  1  0
  5  6  2  0
  6  7  1  0
  7  8  2  0
  7  9  1  0
  9 10  1  0
  9 11  1  0
 11 12  1  0
 12 13  2  0
 13 14  1  0
 14 15  2  0
 15 16  1  0
 16 17  2  0
 17 18  1  0
 18 19  2  0
 13 20  1  0
 20 21  1  0
 21  5  1  0
 21 11  2  0
 19 14  1  0
  1 22  1  0
  1 23  1  0
  1 24  1  0
  6 25  1  0
 10 26  1  0
 10 27  1  0
 10 28  1  0
 12 29  1  0
 15 30  1  0
 16 31  1  0
 17 32  1  0
 18 33  1  0
 19 34  1  0
M  END
