
     RDKit          3D

 15 15  0  0  0  0  0  0  0  0999 V2000
    2.2080   -0.1694    0.0049 C   0  0  0  0  0  0  0  0  0  0  0  0
    0.7127   -0.0304    0.0009 C   0  0  0  0  0  0  0  0  0  0  0  0
   -0.0661   -1.1427   -0.0413 C   0  0  0  0  0  0  0  0  0  0  0  0
   -1.4572   -1.1014   -0.0480 C   0  0  0  0  0  0  0  0  0  0  0  0
   -2.0640    0.1309   -0.0097 C   0  0  0  0  0  0  0  0  0  0  0  0
   -1.2915    1.2950    0.0342 C   0  0  0  0  0  0  0  0  0  0  0  0
    0.0916    1.2014    0.0391 C   0  0  0  0  0  0  0  0  0  0  0  0
    2.4873   -0.8790   -0.8102 H   0  0  0  0  0  0  0  0  0  0  0  0
    2.6902    0.8190   -0.1018 H   0  0  0  0  0  0  0  0  0  0  0  0
    2.5467   -0.6234    0.9600 H   0  0  0  0  0  0  0  0  0  0  0  0
    0.4362   -2.1071   -0.0711 H   0  0  0  0  0  0  0  0  0  0  0  0
   -2.0474   -2.0074   -0.0822 H   0  0  0  0  0  0  0  0  0  0  0  0
   -3.1545    0.2405   -0.0124 H   0  0  0  0  0  0  0  0  0  0  0  0
   -1.7764    2.2699    0.0645 H   0  0  0  0  0  0  0  0  0  0  0  0
    0.6843    2.1042    0.0731 H   0  0  0  0  0  0  0  0  0  0  0  0
  1  2  1  0
  2  3  2  0
  3  4  1  0
  4  5  2  0
  5  6  1  0
  6  7  2  0
  7  2  1  0
  1  8  1  0
  1  9  1  0
  1 10  1  0
  3 11  1  0
  4 12  1  0
  5 13  1  0
  6 14  1  0
  7 15  1  0
M  END
