
     RDKit          3D

 22 23  0  0  0  0  0  0  0  0999 V2000
   -1.6710    3.1193    1.3139 O   0  0  0  0  0  0  0  0  0  0  0  0
   -0.6441    2.8141    0.6775 C   0  0  0  0  0  0  0  0  0  0  0  0
   -0.4143    1.4593    0.2221 C   0  0  0  0  0  0  0  0  0  0  0  0
   -1.4076    0.6278    0.5636 C   0  0  0  0  0  0  0  0  0  0  0  0
   -1.4399   -0.7983    0.2346 C   0  0  0  0  0  0  0  0  0  0  0  0
   -2.5485   -1.5902    0.1806 C   0  0  0  0  0  0  0  0  0  0  0  0
   -2.1820   -2.8014   -0.1451 O   0  0  0  0  0  0  0  0  0  0  0  0
   -0.8828   -2.8799   -0.3166 C   0  0  0  0  0  0  0  0  0  0  0  0
   -0.3570   -1.6101   -0.0824 C   0  0  0  0  0  0  0  0  0  0  0  0
    1.0213   -1.2209   -0.1526 C   0  0  0  0  0  0  0  0  0  0  0  0
    1.5374    0.0064   -0.3355 C   0  0  0  0  0  0  0  0  0  0  0  0
    2.9954    0.0818   -0.3607 C   0  0  0  0  0  0  0  0  0  0  0  0
    3.5315    1.2029   -0.5284 O   0  0  0  0  0  0  0  0  0  0  0  0
    0.8285    1.2550   -0.5141 C   0  0  0  0  0  0  0  0  0  0  0  0
    0.0794    3.5762    0.4670 H   0  0  0  0  0  0  0  0  0  0  0  0
   -2.2379    1.0113    1.1084 H   0  0  0  0  0  0  0  0  0  0  0  0
   -3.5521   -1.2052    0.3888 H   0  0  0  0  0  0  0  0  0  0  0  0
   -0.2650   -3.7275   -0.5872 H   0  0  0  0  0  0  0  0  0  0  0  0
    1.7345   -2.0355   -0.0430 H   0  0  0  0  0  0  0  0  0  0  0  0
    3.6387   -0.7837   -0.2415 H   0  0  0  0  0  0  0  0  0  0  0  0
    0.7015    1.4091   -1.6252 H   0  0  0  0  0  0  0  0  0  0  0  0
    1.5341    2.0897   -0.2243 H   0  0  0  0  0  0  0  0  0  0  0  0
  1  2  2  0
  2  3  1  0
  3  4  2  0
  4  5  1  0
  5  6  2  0
  6  7  1  0
  7  8  1  0
  8  9  2  0
  9 10  1  0
 10 11  2  0
 11 12  1  0
 12 13  2  0
 11 14  1  0
 14  3  1  0
  9  5  1  0
  2 15  1  0
  4 16  1  0
  6 17  1  0
  8 18  1  0
 10 19  1  0
 12 20  1  0
 14 21  1  0
 14 22  1  0
M  END
