
     RDKit          3D

 38 41  0  0  0  0  0  0  0  0999 V2000
   -7.0138   -0.9489    0.9457 Cl  0  0  0  0  0  0  0  0  0  0  0  0
   -5.2709   -1.0146    0.7691 C   0  0  0  0  0  0  0  0  0  0  0  0
   -4.6522   -1.8956   -0.0681 C   0  0  0  0  0  0  0  0  0  0  0  0
   -3.2675   -1.9303   -0.1927 C   0  0  0  0  0  0  0  0  0  0  0  0
   -2.4691   -1.0587    0.5403 C   0  0  0  0  0  0  0  0  0  0  0  0
   -1.0412   -1.1783    0.4373 C   0  0  0  0  0  0  0  0  0  0  0  0
   -0.1662   -0.2502    0.1247 C   0  0  0  0  0  0  0  0  0  0  0  0
   -0.5638    1.1064   -0.1941 C   0  0  0  0  0  0  0  0  0  0  0  0
    0.3419    2.1642   -0.0202 C   0  0  0  0  0  0  0  0  0  0  0  0
    0.1056    3.4542   -0.3758 C   0  0  0  0  0  0  0  0  0  0  0  0
   -1.1097    3.7828   -0.9550 C   0  0  0  0  0  0  0  0  0  0  0  0
   -2.0338    2.7919   -1.1505 C   0  0  0  0  0  0  0  0  0  0  0  0
   -1.7636    1.4733   -0.7769 C   0  0  0  0  0  0  0  0  0  0  0  0
    1.2784   -0.5980    0.0679 C   0  0  0  0  0  0  0  0  0  0  0  0
    2.3478    0.0812   -0.2255 N   0  0  0  0  0  0  0  0  0  0  0  0
    3.5256   -0.4808   -0.2000 C   0  0  0  0  0  0  0  0  0  0  0  0
    4.7491    0.1601   -0.4994 C   0  0  0  0  0  0  0  0  0  0  0  0
    5.8987   -0.5466   -0.4323 C   0  0  0  0  0  0  0  0  0  0  0  0
    6.0046   -1.8916   -0.0850 C   0  0  0  0  0  0  0  0  0  0  0  0
    4.7985   -2.5044    0.2051 C   0  0  0  0  0  0  0  0  0  0  0  0
    3.5847   -1.8043    0.1465 C   0  0  0  0  0  0  0  0  0  0  0  0
    1.9367   -2.1589    0.4146 S   0  0  0  0  0  0  0  0  0  0  0  0
   -3.1439   -0.1807    1.3788 C   0  0  0  0  0  0  0  0  0  0  0  0
   -4.5094   -0.1375    1.5098 C   0  0  0  0  0  0  0  0  0  0  0  0
   -5.2744   -2.5877   -0.6512 H   0  0  0  0  0  0  0  0  0  0  0  0
   -2.8707   -2.6608   -0.8799 H   0  0  0  0  0  0  0  0  0  0  0  0
   -0.5619   -2.1737    0.6404 H   0  0  0  0  0  0  0  0  0  0  0  0
    1.2910    1.9546    0.4409 H   0  0  0  0  0  0  0  0  0  0  0  0
    0.8459    4.2195   -0.2154 H   0  0  0  0  0  0  0  0  0  0  0  0
   -1.2575    4.8157   -1.2211 H   0  0  0  0  0  0  0  0  0  0  0  0
   -2.9777    3.0232   -1.5946 H   0  0  0  0  0  0  0  0  0  0  0  0
   -2.5130    0.7336   -1.0123 H   0  0  0  0  0  0  0  0  0  0  0  0
    4.7869    1.2006   -0.7805 H   0  0  0  0  0  0  0  0  0  0  0  0
    6.8586   -0.0686   -0.6617 H   0  0  0  0  0  0  0  0  0  0  0  0
    6.9263   -2.4143   -0.0429 H   0  0  0  0  0  0  0  0  0  0  0  0
    4.7472   -3.5362    0.4847 H   0  0  0  0  0  0  0  0  0  0  0  0
   -2.5502    0.5014    1.9553 H   0  0  0  0  0  0  0  0  0  0  0  0
   -5.0168    0.5580    2.1742 H   0  0  0  0  0  0  0  0  0  0  0  0
  1  2  1  0
  2  3  2  0
  3  4  1  0
  4  5  2  0
  5  6  1  0
  6  7  2  0
  7  8  1  0
  8  9  2  0
  9 10  1  0
 10 11  2  0
 11 12  1  0
 12 13  2  0
  7 14  1  0
 14 15  2  0
 15 16  1  0
 16 17  2  0
 17 18  1  0
 18 19  2  0
 19 20  1  0
 20 21  2  0
 21 22  1  0
  5 23  1  0
 23 24  2  0
 24  2  1  0
 13  8  1  0
 22 14  1  0
 21 16  1  0
  3 25  1  0
  4 26  1  0
  6 27  1  0
  9 28  1  0
 10 29  1  0
 11 30  1  0
 12 31  1  0
 13 32  1  0
 17 33  1  0
 18 34  1  0
 19 35  1  0
 20 36  1  0
 23 37  1  0
 24 38  1  0
M  END
