
     RDKit          3D

 20 21  0  0  0  0  0  0  0  0999 V2000
    3.3414    0.6837    0.6073 N   0  0  0  0  0  0  0  0  0  0  0  0
    2.0334    0.1805    0.3600 C   0  0  0  0  0  0  0  0  0  0  0  0
    1.7842   -1.1726    0.2646 C   0  0  0  0  0  0  0  0  0  0  0  0
    0.5038   -1.6360    0.0236 C   0  0  0  0  0  0  0  0  0  0  0  0
   -0.5700   -0.7824   -0.1307 C   0  0  0  0  0  0  0  0  0  0  0  0
   -1.8505   -1.2563   -0.3721 C   0  0  0  0  0  0  0  0  0  0  0  0
   -2.9146   -0.3839   -0.5240 C   0  0  0  0  0  0  0  0  0  0  0  0
   -2.6857    0.9741   -0.4319 C   0  0  0  0  0  0  0  0  0  0  0  0
   -1.3918    1.4258   -0.1891 C   0  0  0  0  0  0  0  0  0  0  0  0
   -0.3230    0.5712   -0.0357 C   0  0  0  0  0  0  0  0  0  0  0  0
    0.9594    1.0339    0.2056 C   0  0  0  0  0  0  0  0  0  0  0  0
    4.0922    0.6854   -0.1101 H   0  0  0  0  0  0  0  0  0  0  0  0
    3.5934    1.0768    1.5408 H   0  0  0  0  0  0  0  0  0  0  0  0
    2.6233   -1.8531    0.3847 H   0  0  0  0  0  0  0  0  0  0  0  0
    0.3058   -2.7038   -0.0519 H   0  0  0  0  0  0  0  0  0  0  0  0
   -2.0016   -2.3277   -0.4395 H   0  0  0  0  0  0  0  0  0  0  0  0
   -3.9276   -0.7466   -0.7144 H   0  0  0  0  0  0  0  0  0  0  0  0
   -3.5209    1.6599   -0.5511 H   0  0  0  0  0  0  0  0  0  0  0  0
   -1.1954    2.4781   -0.1145 H   0  0  0  0  0  0  0  0  0  0  0  0
    1.1441    2.0931    0.2784 H   0  0  0  0  0  0  0  0  0  0  0  0
  1  2  1  0
  2  3  2  0
  3  4  1  0
  4  5  2  0
  5  6  1  0
  6  7  2  0
  7  8  1  0
  8  9  2  0
  9 10  1  0
 10 11  2  0
 11  2  1  0
 10  5  1  0
  1 12  1  0
  1 13  1  0
  3 14  1  0
  4 15  1  0
  6 16  1  0
  7 17  1  0
  8 18  1  0
  9 19  1  0
 11 20  1  0
M  END
