
     RDKit          3D

 44 46  0  0  0  0  0  0  0  0999 V2000
    3.1774    1.0752   -2.0735 C   0  0  0  0  0  0  0  0  0  0  0  0
    3.3837    0.6306   -0.7790 O   0  0  0  0  0  0  0  0  0  0  0  0
    2.3020    0.1791    0.0084 C   0  0  0  0  0  0  0  0  0  0  0  0
    1.0338    0.1175   -0.5250 C   0  0  0  0  0  0  0  0  0  0  0  0
   -0.0380   -0.3691    0.2727 C   0  0  0  0  0  0  0  0  0  0  0  0
   -1.3225   -0.3906   -0.3641 N   0  0  0  0  0  0  0  0  0  0  0  0
   -2.2235   -1.4510   -0.3927 C   0  0  0  0  0  0  0  0  0  0  0  0
   -2.7052   -2.1307    0.7391 C   0  0  0  0  0  0  0  0  0  0  0  0
   -3.4698   -3.2666    0.6650 C   0  0  0  0  0  0  0  0  0  0  0  0
   -3.8204   -3.8281   -0.5423 C   0  0  0  0  0  0  0  0  0  0  0  0
   -3.3650   -3.1865   -1.6990 C   0  0  0  0  0  0  0  0  0  0  0  0
   -2.6027   -2.0543   -1.6082 C   0  0  0  0  0  0  0  0  0  0  0  0
   -1.7922    0.9101   -0.8154 C   0  0  0  0  0  0  0  0  0  0  0  0
   -1.6970    1.9583    0.1322 C   0  0  0  0  0  0  0  0  0  0  0  0
   -2.0513    3.2283   -0.2014 C   0  0  0  0  0  0  0  0  0  0  0  0
   -2.5100    3.5651   -1.4078 C   0  0  0  0  0  0  0  0  0  0  0  0
   -2.6192    2.5422   -2.3805 C   0  0  0  0  0  0  0  0  0  0  0  0
   -2.2421    1.2277   -2.0240 C   0  0  0  0  0  0  0  0  0  0  0  0
    0.2422   -0.7493    1.5379 C   0  0  0  0  0  0  0  0  0  0  0  0
    1.4862   -0.6820    2.0712 C   0  0  0  0  0  0  0  0  0  0  0  0
    2.6012   -0.1830    1.2710 C   0  0  0  0  0  0  0  0  0  0  0  0
    3.7696   -0.0355    2.0710 C   0  0  0  0  0  0  0  0  0  0  0  0
    4.7651    0.1412    2.7326 C   0  0  0  0  0  0  0  0  0  0  0  0
    5.4989    1.3681    2.8005 C   0  0  0  0  0  0  0  0  0  0  0  0
    6.1234    2.3799    2.8595 N   0  0  0  0  0  0  0  0  0  0  0  0
    5.1916   -0.8723    3.7494 C   0  0  0  0  0  0  0  0  0  0  0  0
    5.5447   -1.6757    4.5829 N   0  0  0  0  0  0  0  0  0  0  0  0
    2.2559    0.7117   -2.5548 H   0  0  0  0  0  0  0  0  0  0  0  0
    4.0609    0.7323   -2.6888 H   0  0  0  0  0  0  0  0  0  0  0  0
    3.2690    2.2082   -2.0920 H   0  0  0  0  0  0  0  0  0  0  0  0
    0.7921    0.4292   -1.5073 H   0  0  0  0  0  0  0  0  0  0  0  0
   -2.5175   -1.7167    1.7251 H   0  0  0  0  0  0  0  0  0  0  0  0
   -3.7986   -3.7476    1.5577 H   0  0  0  0  0  0  0  0  0  0  0  0
   -4.4059   -4.7156   -0.6120 H   0  0  0  0  0  0  0  0  0  0  0  0
   -3.6144   -3.5948   -2.6419 H   0  0  0  0  0  0  0  0  0  0  0  0
   -2.2503   -1.6255   -2.5504 H   0  0  0  0  0  0  0  0  0  0  0  0
   -1.3261    1.7457    1.1173 H   0  0  0  0  0  0  0  0  0  0  0  0
   -1.9640    4.0203    0.5725 H   0  0  0  0  0  0  0  0  0  0  0  0
   -2.7931    4.5514   -1.7122 H   0  0  0  0  0  0  0  0  0  0  0  0
   -2.9845    2.7711   -3.3498 H   0  0  0  0  0  0  0  0  0  0  0  0
   -2.3178    0.5289   -2.8143 H   0  0  0  0  0  0  0  0  0  0  0  0
   -0.5688   -1.1028    2.1648 H   0  0  0  0  0  0  0  0  0  0  0  0
    1.6947   -0.9760    3.0606 H   0  0  0  0  0  0  0  0  0  0  0  0
    3.8077    1.3315    1.6449 H   0  0  0  0  0  0  0  0  0  0  0  0
  1  2  1  0
  2  3  1  0
  3  4  2  0
  4  5  1  0
  5  6  1  0
  6  7  1  0
  7  8  2  0
  8  9  1  0
  9 10  2  0
 10 11  1  0
 11 12  2  0
  6 13  1  0
 13 14  2  0
 14 15  1  0
 15 16  2  0
 16 17  1  0
 17 18  2  0
  5 19  2  0
 19 20  1  0
 20 21  2  0
 21 22  1  0
 22 23  2  3
 23 24  1  0
 24 25  3  0
 23 26  1  0
 26 27  3  0
 21  3  1  0
 12  7  1  0
 18 13  1  0
  1 28  1  0
  1 29  1  0
  1 30  1  0
  4 31  1  0
  8 32  1  0
  9 33  1  0
 10 34  1  0
 11 35  1  0
 12 36  1  0
 14 37  1  0
 15 38  1  0
 16 39  1  0
 17 40  1  0
 18 41  1  0
 19 42  1  0
 20 43  1  0
 22 44  1  0
M  END
