
     RDKit          3D

 71 78  0  0  0  0  0  0  0  0999 V2000
   -5.6743   -2.6444    1.5757 C   0  0  0  0  0  0  0  0  0  0  0  0
   -4.5566   -2.0719    0.9662 O   0  0  0  0  0  0  0  0  0  0  0  0
   -3.8735   -2.7509   -0.0243 C   0  0  0  0  0  0  0  0  0  0  0  0
   -4.3608   -4.0242   -0.3425 C   0  0  0  0  0  0  0  0  0  0  0  0
   -3.7450   -4.7986   -1.2894 C   0  0  0  0  0  0  0  0  0  0  0  0
   -2.6407   -4.2691   -1.9023 C   0  0  0  0  0  0  0  0  0  0  0  0
   -2.1540   -3.0203   -1.6027 C   0  0  0  0  0  0  0  0  0  0  0  0
   -2.7418   -2.2065   -0.6606 C   0  0  0  0  0  0  0  0  0  0  0  0
   -2.3650   -0.8205   -0.5005 C   0  0  0  0  0  0  0  0  0  0  0  0
   -1.1860   -0.2698   -0.5878 N   0  0  0  0  0  4  0  0  0  0  0  0
   -1.2199    1.1237   -0.3803 C   0  0  0  0  0  0  0  0  0  0  0  0
   -0.1306    1.8848   -0.2960 C   0  0  0  0  0  0  0  0  0  0  0  0
   -0.1811    3.3315   -0.0807 C   0  0  0  0  0  0  0  0  0  0  0  0
   -0.2109    4.1987   -1.1885 C   0  0  0  0  0  0  0  0  0  0  0  0
   -0.2440    5.5553   -0.9127 C   0  0  0  0  0  0  0  0  0  0  0  0
   -0.2478    6.0360    0.3791 C   0  0  0  0  0  0  0  0  0  0  0  0
   -0.2180    5.1491    1.4209 C   0  0  0  0  0  0  0  0  0  0  0  0
   -0.1847    3.8039    1.2115 C   0  0  0  0  0  0  0  0  0  0  0  0
    1.2180    1.2846   -0.3847 C   0  0  0  0  0  0  0  0  0  0  0  0
    2.4860    1.8099   -0.1859 C   0  0  0  0  0  0  0  0  0  0  0  0
    2.9514    3.0876    0.0035 C   0  0  0  0  0  0  0  0  0  0  0  0
    4.2827    3.3407    0.1377 C   0  0  0  0  0  0  0  0  0  0  0  0
    5.1846    2.3273    0.0850 C   0  0  0  0  0  0  0  0  0  0  0  0
    4.7168    1.0385   -0.1069 C   0  0  0  0  0  0  0  0  0  0  0  0
    3.4035    0.7700   -0.2384 C   0  0  0  0  0  0  0  0  0  0  0  0
    2.6437   -0.3694   -0.4708 C   0  0  0  0  0  0  0  0  0  0  0  0
    3.2025   -1.7061   -0.3981 C   0  0  0  0  0  0  0  0  0  0  0  0
    2.8405   -2.7126   -1.2537 C   0  0  0  0  0  0  0  0  0  0  0  0
    3.2772   -4.0325   -1.1176 C   0  0  0  0  0  0  0  0  0  0  0  0
    4.1055   -4.3768   -0.0981 C   0  0  0  0  0  0  0  0  0  0  0  0
    4.4953   -3.4077    0.7833 C   0  0  0  0  0  0  0  0  0  0  0  0
    4.0543   -2.0972    0.6418 C   0  0  0  0  0  0  0  0  0  0  0  0
    4.4477   -1.1323    1.5512 O   0  0  0  0  0  0  0  0  0  0  0  0
    5.3065   -1.4348    2.6340 C   0  0  0  0  0  0  0  0  0  0  0  0
    1.3288   -0.0174   -0.5602 N   0  0  0  0  0  0  0  0  0  0  0  0
    0.1448   -0.9242   -0.9156 B   0  0  0  0  0  4  0  0  0  0  0  0
    0.3070   -0.9679   -2.3997 F   0  0  0  0  0  0  0  0  0  0  0  0
    0.3913   -2.1708   -0.2571 F   0  0  0  0  0  0  0  0  0  0  0  0
   -2.6120    1.5001   -0.1596 C   0  0  0  0  0  0  0  0  0  0  0  0
   -3.2016    2.7251    0.0225 C   0  0  0  0  0  0  0  0  0  0  0  0
   -4.5907    2.7773    0.1280 C   0  0  0  0  0  0  0  0  0  0  0  0
   -5.3146    1.6248    0.0456 C   0  0  0  0  0  0  0  0  0  0  0  0
   -4.6846    0.3953   -0.1413 C   0  0  0  0  0  0  0  0  0  0  0  0
   -3.3149    0.2834   -0.2464 C   0  0  0  0  0  0  0  0  0  0  0  0
   -6.1017   -1.9942    2.3660 H   0  0  0  0  0  0  0  0  0  0  0  0
   -6.4653   -2.8174    0.8098 H   0  0  0  0  0  0  0  0  0  0  0  0
   -5.4436   -3.6498    2.0128 H   0  0  0  0  0  0  0  0  0  0  0  0
   -5.2284   -4.4327    0.1428 H   0  0  0  0  0  0  0  0  0  0  0  0
   -4.0849   -5.7754   -1.5611 H   0  0  0  0  0  0  0  0  0  0  0  0
   -2.1444   -4.8682   -2.6474 H   0  0  0  0  0  0  0  0  0  0  0  0
   -1.3208   -2.6878   -2.1321 H   0  0  0  0  0  0  0  0  0  0  0  0
   -0.2081    3.8353   -2.1839 H   0  0  0  0  0  0  0  0  0  0  0  0
   -0.2683    6.2940   -1.7082 H   0  0  0  0  0  0  0  0  0  0  0  0
   -0.2743    7.1191    0.5766 H   0  0  0  0  0  0  0  0  0  0  0  0
   -0.2215    5.5415    2.4216 H   0  0  0  0  0  0  0  0  0  0  0  0
   -0.1619    3.1283    2.0283 H   0  0  0  0  0  0  0  0  0  0  0  0
    2.3002    3.9421    0.0472 H   0  0  0  0  0  0  0  0  0  0  0  0
    4.6540    4.3467    0.2884 H   0  0  0  0  0  0  0  0  0  0  0  0
    6.2580    2.4659    0.1849 H   0  0  0  0  0  0  0  0  0  0  0  0
    5.4598    0.2445   -0.1988 H   0  0  0  0  0  0  0  0  0  0  0  0
    2.2123   -2.5550   -2.1183 H   0  0  0  0  0  0  0  0  0  0  0  0
    2.9614   -4.7879   -1.8187 H   0  0  0  0  0  0  0  0  0  0  0  0
    4.4725   -5.4056    0.0425 H   0  0  0  0  0  0  0  0  0  0  0  0
    5.1533   -3.6589    1.6003 H   0  0  0  0  0  0  0  0  0  0  0  0
    5.7278   -0.5156    3.0859 H   0  0  0  0  0  0  0  0  0  0  0  0
    4.7880   -2.0740    3.3995 H   0  0  0  0  0  0  0  0  0  0  0  0
    6.1893   -2.0460    2.2949 H   0  0  0  0  0  0  0  0  0  0  0  0
   -2.6278    3.6335    0.0759 H   0  0  0  0  0  0  0  0  0  0  0  0
   -5.0384    3.7412    0.2723 H   0  0  0  0  0  0  0  0  0  0  0  0
   -6.4055    1.6288    0.1230 H   0  0  0  0  0  0  0  0  0  0  0  0
   -5.3169   -0.4741   -0.2880 H   0  0  0  0  0  0  0  0  0  0  0  0
  1  2  1  0
  2  3  1  0
  3  4  2  0
  4  5  1  0
  5  6  2  0
  6  7  1  0
  7  8  2  0
  8  9  1  0
  9 10  2  0
 10 11  1  0
 11 12  2  0
 12 13  1  0
 13 14  2  0
 14 15  1  0
 15 16  2  0
 16 17  1  0
 17 18  2  0
 12 19  1  0
 19 20  2  0
 20 21  1  0
 21 22  2  0
 22 23  1  0
 23 24  2  0
 24 25  1  0
 25 26  2  0
 26 27  1  0
 27 28  2  0
 28 29  1  0
 29 30  2  0
 30 31  1  0
 31 32  2  0
 32 33  1  0
 33 34  1  0
 26 35  1  0
 35 36  1  0
 36 37  1  0
 36 38  1  0
 11 39  1  0
 39 40  2  0
 40 41  1  0
 41 42  2  0
 42 43  1  0
 43 44  2  0
  8  3  1  0
 44  9  1  0
 36 10  1  0
 44 39  1  0
 18 13  1  0
 35 19  1  0
 25 20  1  0
 32 27  1  0
  1 45  1  0
  1 46  1  0
  1 47  1  0
  4 48  1  0
  5 49  1  0
  6 50  1  0
  7 51  1  0
 14 52  1  0
 15 53  1  0
 16 54  1  0
 17 55  1  0
 18 56  1  0
 21 57  1  0
 22 58  1  0
 23 59  1  0
 24 60  1  0
 28 61  1  0
 29 62  1  0
 30 63  1  0
 31 64  1  0
 34 65  1  0
 34 66  1  0
 34 67  1  0
 40 68  1  0
 41 69  1  0
 42 70  1  0
 43 71  1  0
M  CHG  2  10   1  36  -1
M  END
