
     RDKit          3D

 34 35  0  0  0  0  0  0  0  0999 V2000
   -5.1786   -0.8479   -1.1464 C   0  0  0  0  0  0  0  0  0  0  0  0
   -4.4686    0.0955   -0.3231 N   0  0  0  0  0  0  0  0  0  0  0  0
   -5.1780    1.0217    0.5206 C   0  0  0  0  0  0  0  0  0  0  0  0
   -3.0543    0.1277   -0.3299 C   0  0  0  0  0  0  0  0  0  0  0  0
   -2.2680   -0.6058    0.5096 C   0  0  0  0  0  0  0  0  0  0  0  0
   -0.8674   -0.5297    0.4531 C   0  0  0  0  0  0  0  0  0  0  0  0
   -0.2412    0.2880   -0.4517 C   0  0  0  0  0  0  0  0  0  0  0  0
    1.2363    0.3990   -0.5462 C   0  0  0  0  0  0  0  0  0  0  0  0
    1.6979    1.1860   -1.4052 O   0  0  0  0  0  0  0  0  0  0  0  0
    2.0830   -0.3345    0.2785 N   0  0  0  0  0  0  0  0  0  0  0  0
    3.4867   -0.2704    0.2469 C   0  0  0  0  0  0  0  0  0  0  0  0
    4.1736    0.7658   -0.3246 C   0  0  0  0  0  0  0  0  0  0  0  0
    5.5775    0.7369   -0.3318 C   0  0  0  0  0  0  0  0  0  0  0  0
    6.2689   -0.3143    0.2262 C   0  0  0  0  0  0  0  0  0  0  0  0
    8.0345   -0.2940    0.1865 Cl  0  0  0  0  0  0  0  0  0  0  0  0
    5.5769   -1.3550    0.8010 C   0  0  0  0  0  0  0  0  0  0  0  0
    4.2175   -1.3348    0.8118 C   0  0  0  0  0  0  0  0  0  0  0  0
   -1.0457    1.0277   -1.2985 C   0  0  0  0  0  0  0  0  0  0  0  0
   -2.4217    0.9587   -1.2496 C   0  0  0  0  0  0  0  0  0  0  0  0
   -4.5576   -1.2798   -1.9490 H   0  0  0  0  0  0  0  0  0  0  0  0
   -6.0805   -0.3945   -1.6173 H   0  0  0  0  0  0  0  0  0  0  0  0
   -5.5243   -1.6780   -0.4733 H   0  0  0  0  0  0  0  0  0  0  0  0
   -6.1647    1.3216    0.0885 H   0  0  0  0  0  0  0  0  0  0  0  0
   -5.3435    0.5921    1.5355 H   0  0  0  0  0  0  0  0  0  0  0  0
   -4.6158    1.9654    0.6780 H   0  0  0  0  0  0  0  0  0  0  0  0
   -2.7556   -1.2560    1.2293 H   0  0  0  0  0  0  0  0  0  0  0  0
   -0.3052   -1.1242    1.1322 H   0  0  0  0  0  0  0  0  0  0  0  0
    1.6633   -0.9967    0.9955 H   0  0  0  0  0  0  0  0  0  0  0  0
    3.6917    1.6434   -0.7747 H   0  0  0  0  0  0  0  0  0  0  0  0
    6.1063    1.5734   -0.7934 H   0  0  0  0  0  0  0  0  0  0  0  0
    6.1780   -2.1561    1.2254 H   0  0  0  0  0  0  0  0  0  0  0  0
    3.6686   -2.1583    1.2663 H   0  0  0  0  0  0  0  0  0  0  0  0
   -0.5519    1.6841   -2.0251 H   0  0  0  0  0  0  0  0  0  0  0  0
   -3.0380    1.5431   -1.9182 H   0  0  0  0  0  0  0  0  0  0  0  0
  1  2  1  0
  2  3  1  0
  2  4  1  0
  4  5  2  0
  5  6  1  0
  6  7  2  0
  7  8  1  0
  8  9  2  0
  8 10  1  0
 10 11  1  0
 11 12  2  0
 12 13  1  0
 13 14  2  0
 14 15  1  0
 14 16  1  0
 16 17  2  0
  7 18  1  0
 18 19  2  0
 19  4  1  0
 17 11  1  0
  1 20  1  0
  1 21  1  0
  1 22  1  0
  3 23  1  0
  3 24  1  0
  3 25  1  0
  5 26  1  0
  6 27  1  0
 10 28  1  0
 12 29  1  0
 13 30  1  0
 16 31  1  0
 17 32  1  0
 18 33  1  0
 19 34  1  0
M  END
