
     RDKit          3D

 75 80  0  0  0  0  0  0  0  0999 V2000
   -7.6430   -2.2823    0.6915 C   0  0  0  0  0  0  0  0  0  0  0  0
   -6.7248   -2.0120   -0.4669 C   0  0  0  0  0  0  0  0  0  0  0  0
   -5.8733   -3.2388   -0.7059 C   0  0  0  0  0  0  0  0  0  0  0  0
   -7.5666   -1.7532   -1.7028 C   0  0  0  0  0  0  0  0  0  0  0  0
   -5.8766   -0.8219   -0.1526 C   0  0  0  0  0  0  0  0  0  0  0  0
   -6.4333    0.3262    0.3556 C   0  0  0  0  0  0  0  0  0  0  0  0
   -5.6662    1.4234    0.6674 C   0  0  0  0  0  0  0  0  0  0  0  0
   -4.2687    1.4275    0.4831 C   0  0  0  0  0  0  0  0  0  0  0  0
   -3.5071    2.6318    0.8359 C   0  0  0  0  0  0  0  0  0  0  0  0
   -2.4278    2.4117    1.8857 C   0  0  0  0  0  0  0  0  0  0  0  0
   -4.4712    3.6236    1.5506 C   0  0  0  0  0  0  0  0  0  0  0  0
   -2.9789    3.4325   -0.3244 C   0  0  0  0  0  0  0  0  0  0  0  0
   -3.7246    0.2749   -0.0255 C   0  0  0  0  0  0  0  0  0  0  0  0
   -2.3276    0.1412   -0.2016 N   0  0  0  0  0  0  0  0  0  0  0  0
   -1.6391    0.5982   -1.3344 C   0  0  0  0  0  0  0  0  0  0  0  0
   -2.2104    1.1512   -2.3160 O   0  0  0  0  0  0  0  0  0  0  0  0
   -0.1714    0.4291   -1.4066 C   0  0  0  0  0  0  0  0  0  0  0  0
    0.4745    0.9002   -2.5313 C   0  0  0  0  0  0  0  0  0  0  0  0
    1.8382    0.7811   -2.6601 C   0  0  0  0  0  0  0  0  0  0  0  0
    2.5953    0.1845   -1.6575 C   0  0  0  0  0  0  0  0  0  0  0  0
    1.9381   -0.2848   -0.5303 C   0  0  0  0  0  0  0  0  0  0  0  0
    2.6401   -0.8677    0.4739 C   0  0  0  0  0  0  0  0  0  0  0  0
    4.1227   -0.9213    0.5290 C   0  0  0  0  0  0  0  0  0  0  0  0
    4.8519   -1.6871    1.4175 C   0  0  0  0  0  0  0  0  0  0  0  0
    6.1915   -1.6014    1.3429 C   0  0  0  0  0  0  0  0  0  0  0  0
    6.7211   -0.7707    0.4016 C   0  0  0  0  0  0  0  0  0  0  0  0
    8.1438   -0.4901    0.2082 C   0  0  0  0  0  0  0  0  0  0  0  0
    8.5688    0.4831   -0.6592 C   0  0  0  0  0  0  0  0  0  0  0  0
    9.9290    0.7764   -0.8166 C   0  0  0  0  0  0  0  0  0  0  0  0
   10.8917    0.0986   -0.1086 C   0  0  0  0  0  0  0  0  0  0  0  0
   12.2790    0.3700   -0.2190 N   0  0  0  0  0  4  0  0  0  0  0  0
   13.1438   -0.2354    0.4323 O   0  0  0  0  0  0  0  0  0  0  0  0
   12.6974    1.3490   -1.0767 O   0  0  0  0  0  1  0  0  0  0  0  0
   10.4615   -0.8911    0.7715 C   0  0  0  0  0  0  0  0  0  0  0  0
    9.1149   -1.1724    0.9194 C   0  0  0  0  0  0  0  0  0  0  0  0
    5.3519   -0.1420   -0.3468 S   0  0  0  0  0  0  0  0  0  0  0  0
    1.9462   -1.3319    1.5994 C   0  0  0  0  0  0  0  0  0  0  0  0
    0.5937   -1.2090    1.7124 C   0  0  0  0  0  0  0  0  0  0  0  0
   -0.1444   -0.6102    0.6984 C   0  0  0  0  0  0  0  0  0  0  0  0
    0.5542   -0.1619   -0.4091 C   0  0  0  0  0  0  0  0  0  0  0  0
   -1.5909   -0.4812    0.8473 C   0  0  0  0  0  0  0  0  0  0  0  0
   -2.1365   -0.9257    1.9004 O   0  0  0  0  0  0  0  0  0  0  0  0
   -4.5230   -0.8484   -0.3443 C   0  0  0  0  0  0  0  0  0  0  0  0
   -8.2612   -3.1832    0.4325 H   0  0  0  0  0  0  0  0  0  0  0  0
   -8.3678   -1.4783    0.8563 H   0  0  0  0  0  0  0  0  0  0  0  0
   -7.1125   -2.5040    1.6247 H   0  0  0  0  0  0  0  0  0  0  0  0
   -5.1662   -3.3470    0.1453 H   0  0  0  0  0  0  0  0  0  0  0  0
   -6.5550   -4.0988   -0.8032 H   0  0  0  0  0  0  0  0  0  0  0  0
   -5.2441   -3.1037   -1.6229 H   0  0  0  0  0  0  0  0  0  0  0  0
   -8.4248   -2.4546   -1.6657 H   0  0  0  0  0  0  0  0  0  0  0  0
   -7.9978   -0.7347   -1.6069 H   0  0  0  0  0  0  0  0  0  0  0  0
   -6.9799   -1.8911   -2.6351 H   0  0  0  0  0  0  0  0  0  0  0  0
   -7.5126    0.3311    0.4969 H   0  0  0  0  0  0  0  0  0  0  0  0
   -6.1618    2.3120    1.0616 H   0  0  0  0  0  0  0  0  0  0  0  0
   -2.3302    3.3696    2.4661 H   0  0  0  0  0  0  0  0  0  0  0  0
   -1.4395    2.2718    1.4293 H   0  0  0  0  0  0  0  0  0  0  0  0
   -2.6723    1.6135    2.5762 H   0  0  0  0  0  0  0  0  0  0  0  0
   -3.8727    4.5233    1.8408 H   0  0  0  0  0  0  0  0  0  0  0  0
   -4.9847    3.1680    2.3832 H   0  0  0  0  0  0  0  0  0  0  0  0
   -5.1671    3.9641    0.7737 H   0  0  0  0  0  0  0  0  0  0  0  0
   -3.5767    3.1907   -1.2139 H   0  0  0  0  0  0  0  0  0  0  0  0
   -3.1283    4.5356   -0.1775 H   0  0  0  0  0  0  0  0  0  0  0  0
   -1.8784    3.2897   -0.4531 H   0  0  0  0  0  0  0  0  0  0  0  0
   -0.0955    1.3714   -3.3290 H   0  0  0  0  0  0  0  0  0  0  0  0
    2.3795    1.1384   -3.5206 H   0  0  0  0  0  0  0  0  0  0  0  0
    3.6527    0.0862   -1.7845 H   0  0  0  0  0  0  0  0  0  0  0  0
    4.3297   -2.3487    2.1494 H   0  0  0  0  0  0  0  0  0  0  0  0
    6.8504   -2.1970    2.0371 H   0  0  0  0  0  0  0  0  0  0  0  0
    7.8122    1.0187   -1.2175 H   0  0  0  0  0  0  0  0  0  0  0  0
   10.2389    1.5509   -1.5025 H   0  0  0  0  0  0  0  0  0  0  0  0
   11.2267   -1.4270    1.3279 H   0  0  0  0  0  0  0  0  0  0  0  0
    8.8012   -1.9506    1.6063 H   0  0  0  0  0  0  0  0  0  0  0  0
    2.4801   -1.8014    2.4117 H   0  0  0  0  0  0  0  0  0  0  0  0
    0.0413   -1.5678    2.5854 H   0  0  0  0  0  0  0  0  0  0  0  0
   -4.0274   -1.7208   -0.7394 H   0  0  0  0  0  0  0  0  0  0  0  0
  1  2  1  0
  2  3  1  0
  2  4  1  0
  2  5  1  0
  5  6  2  0
  6  7  1  0
  7  8  2  0
  8  9  1  0
  9 10  1  0
  9 11  1  0
  9 12  1  0
  8 13  1  0
 13 14  1  0
 14 15  1  0
 15 16  2  0
 15 17  1  0
 17 18  2  0
 18 19  1  0
 19 20  2  0
 20 21  1  0
 21 22  2  0
 22 23  1  0
 23 24  2  0
 24 25  1  0
 25 26  2  0
 26 27  1  0
 27 28  2  0
 28 29  1  0
 29 30  2  0
 30 31  1  0
 31 32  2  0
 31 33  1  0
 30 34  1  0
 34 35  2  0
 26 36  1  0
 22 37  1  0
 37 38  2  0
 38 39  1  0
 39 40  2  0
 39 41  1  0
 41 42  2  0
 13 43  2  0
 43  5  1  0
 41 14  1  0
 40 17  1  0
 40 21  1  0
 36 23  1  0
 35 27  1  0
  1 44  1  0
  1 45  1  0
  1 46  1  0
  3 47  1  0
  3 48  1  0
  3 49  1  0
  4 50  1  0
  4 51  1  0
  4 52  1  0
  6 53  1  0
  7 54  1  0
 10 55  1  0
 10 56  1  0
 10 57  1  0
 11 58  1  0
 11 59  1  0
 11 60  1  0
 12 61  1  0
 12 62  1  0
 12 63  1  0
 18 64  1  0
 19 65  1  0
 20 66  1  0
 24 67  1  0
 25 68  1  0
 28 69  1  0
 29 70  1  0
 34 71  1  0
 35 72  1  0
 37 73  1  0
 38 74  1  0
 43 75  1  0
M  CHG  2  31   1  33  -1
M  END
