
     RDKit          3D

 38 40  0  0  0  0  0  0  0  0999 V2000
   -2.9347   -2.2927   -0.5251 C   0  0  0  0  0  0  0  0  0  0  0  0
   -2.2525   -1.0175   -0.1938 N   0  0  0  0  0  0  0  0  0  0  0  0
   -3.1121    0.0837    0.0236 C   0  0  0  0  0  0  0  0  0  0  0  0
   -4.3412    0.1417   -0.6498 C   0  0  0  0  0  0  0  0  0  0  0  0
   -5.2593    1.1446   -0.4813 C   0  0  0  0  0  0  0  0  0  0  0  0
   -4.9764    2.1700    0.4012 C   0  0  0  0  0  0  0  0  0  0  0  0
   -3.7779    2.1365    1.0746 C   0  0  0  0  0  0  0  0  0  0  0  0
   -2.8514    1.1086    0.8942 C   0  0  0  0  0  0  0  0  0  0  0  0
   -0.8409   -0.9729   -0.1473 C   0  0  0  0  0  0  0  0  0  0  0  0
    0.1023   -2.0061   -0.3288 C   0  0  0  0  0  0  0  0  0  0  0  0
    0.0899   -3.3710   -0.5739 O   0  0  0  0  0  1  0  0  0  0  0  0
    1.1256   -1.1088   -0.1635 C   0  0  0  0  0  0  0  0  0  0  0  0
    2.4215   -1.1582   -0.1776 N   0  0  0  0  0  4  0  0  0  0  0  0
    3.0619   -2.4604   -0.4267 C   0  0  0  0  0  0  0  0  0  0  0  0
    3.1806    0.0083    0.0388 C   0  0  0  0  0  0  0  0  0  0  0  0
    3.0698    1.0848   -0.8335 C   0  0  0  0  0  0  0  0  0  0  0  0
    3.8027    2.2339   -0.6503 C   0  0  0  0  0  0  0  0  0  0  0  0
    4.6710    2.3568    0.4026 C   0  0  0  0  0  0  0  0  0  0  0  0
    4.7953    1.2885    1.2866 C   0  0  0  0  0  0  0  0  0  0  0  0
    4.0496    0.1238    1.0977 C   0  0  0  0  0  0  0  0  0  0  0  0
    0.1898   -0.0983    0.0138 C   0  0  0  0  0  0  0  0  0  0  0  0
    0.3136    1.1274    0.2323 O   0  0  0  0  0  0  0  0  0  0  0  0
   -3.8044   -2.4326    0.1478 H   0  0  0  0  0  0  0  0  0  0  0  0
   -3.1910   -2.2802   -1.5973 H   0  0  0  0  0  0  0  0  0  0  0  0
   -2.2096   -3.0996   -0.3024 H   0  0  0  0  0  0  0  0  0  0  0  0
   -4.5739   -0.6538   -1.3424 H   0  0  0  0  0  0  0  0  0  0  0  0
   -6.2087    1.1703   -1.0154 H   0  0  0  0  0  0  0  0  0  0  0  0
   -5.6913    2.9779    0.5490 H   0  0  0  0  0  0  0  0  0  0  0  0
   -3.5327    2.9294    1.7714 H   0  0  0  0  0  0  0  0  0  0  0  0
   -1.9431    1.1553    1.4894 H   0  0  0  0  0  0  0  0  0  0  0  0
    2.5431   -2.9785   -1.2761 H   0  0  0  0  0  0  0  0  0  0  0  0
    4.1234   -2.2519   -0.6558 H   0  0  0  0  0  0  0  0  0  0  0  0
    3.0240   -3.0609    0.5085 H   0  0  0  0  0  0  0  0  0  0  0  0
    2.3964    1.0489   -1.6881 H   0  0  0  0  0  0  0  0  0  0  0  0
    3.6911    3.0413   -1.3400 H   0  0  0  0  0  0  0  0  0  0  0  0
    5.2240    3.2765    0.5058 H   0  0  0  0  0  0  0  0  0  0  0  0
    5.4627    1.3426    2.1243 H   0  0  0  0  0  0  0  0  0  0  0  0
    4.1626   -0.7077    1.8074 H   0  0  0  0  0  0  0  0  0  0  0  0
  1  2  1  0
  2  3  1  0
  3  4  2  0
  4  5  1  0
  5  6  2  0
  6  7  1  0
  7  8  2  0
  2  9  1  0
  9 10  2  0
 10 11  1  0
 10 12  1  0
 12 13  2  0
 13 14  1  0
 13 15  1  0
 15 16  2  0
 16 17  1  0
 17 18  2  0
 18 19  1  0
 19 20  2  0
 12 21  1  0
 21 22  2  0
  8  3  1  0
 21  9  1  0
 20 15  1  0
  1 23  1  0
  1 24  1  0
  1 25  1  0
  4 26  1  0
  5 27  1  0
  6 28  1  0
  7 29  1  0
  8 30  1  0
 14 31  1  0
 14 32  1  0
 14 33  1  0
 16 34  1  0
 17 35  1  0
 18 36  1  0
 19 37  1  0
 20 38  1  0
M  CHG  2  11  -1  13   1
M  END
