
     RDKit          3D

 33 35  0  0  0  0  0  0  0  0999 V2000
    4.9596   -0.8241   -0.3689 C   0  0  0  0  0  0  0  0  0  0  0  0
    4.2315    0.2932    0.1008 O   0  0  0  0  0  0  0  0  0  0  0  0
    2.8291    0.2078    0.0603 C   0  0  0  0  0  0  0  0  0  0  0  0
    2.0458    1.2605    0.5025 C   0  0  0  0  0  0  0  0  0  0  0  0
    0.6710    1.2195    0.4809 C   0  0  0  0  0  0  0  0  0  0  0  0
   -0.1376    2.2601    0.9179 O   0  0  0  0  0  0  0  0  0  0  0  0
    0.3428    3.4734    1.4320 C   0  0  0  0  0  0  0  0  0  0  0  0
    0.0260    0.0902    0.0017 C   0  0  0  0  0  0  0  0  0  0  0  0
   -1.3154   -0.2332   -0.1391 C   0  0  0  0  0  0  0  0  0  0  0  0
   -1.3210   -1.4930   -0.6713 C   0  0  0  0  0  0  0  0  0  0  0  0
   -0.0690   -1.9099   -0.8435 N   0  0  0  0  0  0  0  0  0  0  0  0
    0.8171   -0.9517   -0.4359 C   0  0  0  0  0  0  0  0  0  0  0  0
    2.1959   -0.9184   -0.4175 C   0  0  0  0  0  0  0  0  0  0  0  0
   -2.5896   -2.1720   -0.9618 C   0  0  0  0  0  0  0  0  0  0  0  0
   -2.6104   -3.3623   -1.3345 O   0  0  0  0  0  0  0  0  0  0  0  0
   -3.8285   -1.4007   -0.7980 C   0  0  0  0  0  0  0  0  0  0  0  0
   -3.7552   -0.3746    0.3050 C   0  0  0  0  0  0  0  0  0  0  0  0
   -2.5510    0.5277    0.1789 C   0  0  0  0  0  0  0  0  0  0  0  0
    4.6166   -1.7045    0.2337 H   0  0  0  0  0  0  0  0  0  0  0  0
    4.7995   -1.0188   -1.4401 H   0  0  0  0  0  0  0  0  0  0  0  0
    6.0346   -0.6096   -0.2024 H   0  0  0  0  0  0  0  0  0  0  0  0
    2.5369    2.1605    0.8843 H   0  0  0  0  0  0  0  0  0  0  0  0
    0.5138    4.1479    0.5532 H   0  0  0  0  0  0  0  0  0  0  0  0
   -0.4526    3.8813    2.0987 H   0  0  0  0  0  0  0  0  0  0  0  0
    1.2739    3.3004    2.0099 H   0  0  0  0  0  0  0  0  0  0  0  0
    0.2498   -2.8249   -1.2290 H   0  0  0  0  0  0  0  0  0  0  0  0
    2.7989   -1.7456   -0.7650 H   0  0  0  0  0  0  0  0  0  0  0  0
   -4.6410   -2.1076   -0.5265 H   0  0  0  0  0  0  0  0  0  0  0  0
   -4.0458   -0.9035   -1.7650 H   0  0  0  0  0  0  0  0  0  0  0  0
   -4.6724    0.2436    0.2356 H   0  0  0  0  0  0  0  0  0  0  0  0
   -3.7778   -0.8874    1.2891 H   0  0  0  0  0  0  0  0  0  0  0  0
   -2.7322    1.3395   -0.5541 H   0  0  0  0  0  0  0  0  0  0  0  0
   -2.4433    1.0362    1.1682 H   0  0  0  0  0  0  0  0  0  0  0  0
  1  2  1  0
  2  3  1  0
  3  4  2  0
  4  5  1  0
  5  6  1  0
  6  7  1  0
  5  8  2  0
  8  9  1  0
  9 10  2  0
 10 11  1  0
 11 12  1  0
 12 13  2  0
 10 14  1  0
 14 15  2  0
 14 16  1  0
 16 17  1  0
 17 18  1  0
 13  3  1  0
 12  8  1  0
 18  9  1  0
  1 19  1  0
  1 20  1  0
  1 21  1  0
  4 22  1  0
  7 23  1  0
  7 24  1  0
  7 25  1  0
 11 26  1  0
 13 27  1  0
 16 28  1  0
 16 29  1  0
 17 30  1  0
 17 31  1  0
 18 32  1  0
 18 33  1  0
M  END
