
     RDKit          3D

 67 75  0  0  0  0  0  0  0  0999 V2000
    4.3792    2.1760    2.7843 C   0  0  0  0  0  0  0  0  0  0  0  0
    4.6836    0.8697    2.4737 C   0  0  0  0  0  0  0  0  0  0  0  0
    3.9488    0.1266    1.5839 C   0  0  0  0  0  0  0  0  0  0  0  0
    2.8682    0.7316    0.9903 C   0  0  0  0  0  0  0  0  0  0  0  0
    2.0458   -0.0612    0.0257 C   0  0  0  0  0  0  0  0  0  0  0  0
    2.9714   -0.7870   -0.8856 C   0  0  0  0  0  0  0  0  0  0  0  0
    2.7131   -2.0802   -1.2851 C   0  0  0  0  0  0  0  0  0  0  0  0
    3.5774   -2.7530   -2.1239 C   0  0  0  0  0  0  0  0  0  0  0  0
    4.7297   -2.1688   -2.5979 C   0  0  0  0  0  0  0  0  0  0  0  0
    4.9859   -0.8705   -2.1948 C   0  0  0  0  0  0  0  0  0  0  0  0
    4.1211   -0.1910   -1.3525 C   0  0  0  0  0  0  0  0  0  0  0  0
    1.1149   -0.9413    0.7164 C   0  0  0  0  0  0  0  0  0  0  0  0
    1.3072   -1.9974    1.6042 C   0  0  0  0  0  0  0  0  0  0  0  0
    0.3259   -2.7520    2.1420 C   0  0  0  0  0  0  0  0  0  0  0  0
   -1.0397   -2.4922    1.7664 C   0  0  0  0  0  0  0  0  0  0  0  0
   -1.9167   -3.4602    2.0670 C   0  0  0  0  0  0  0  0  0  0  0  0
   -3.1122   -3.5276    1.4252 C   0  0  0  0  0  0  0  0  0  0  0  0
   -3.3543   -2.5531    0.4271 C   0  0  0  0  0  0  0  0  0  0  0  0
   -4.4040   -2.8890   -0.4289 C   0  0  0  0  0  0  0  0  0  0  0  0
   -4.5634   -2.2588   -1.6237 C   0  0  0  0  0  0  0  0  0  0  0  0
   -3.6438   -1.2967   -1.9329 C   0  0  0  0  0  0  0  0  0  0  0  0
   -2.6163   -0.9545   -1.0950 C   0  0  0  0  0  0  0  0  0  0  0  0
   -2.4583   -1.5778    0.1517 C   0  0  0  0  0  0  0  0  0  0  0  0
   -1.2047   -1.4533    0.8771 C   0  0  0  0  0  0  0  0  0  0  0  0
   -0.2395   -0.6602    0.3817 C   0  0  0  0  0  0  0  0  0  0  0  0
   -0.2041    0.5969   -0.4004 C   0  0  0  0  0  0  0  0  0  0  0  0
    1.1616    0.8621   -0.6936 C   0  0  0  0  0  0  0  0  0  0  0  0
    1.4591    1.9223   -1.5528 C   0  0  0  0  0  0  0  0  0  0  0  0
    0.4955    2.6951   -2.0962 C   0  0  0  0  0  0  0  0  0  0  0  0
   -0.8845    2.4689   -1.7785 C   0  0  0  0  0  0  0  0  0  0  0  0
   -1.7115    3.4728   -2.1073 C   0  0  0  0  0  0  0  0  0  0  0  0
   -2.9397    3.5696   -1.5211 C   0  0  0  0  0  0  0  0  0  0  0  0
   -3.2547    2.5942   -0.5636 C   0  0  0  0  0  0  0  0  0  0  0  0
   -4.3469    2.9984    0.2261 C   0  0  0  0  0  0  0  0  0  0  0  0
   -4.5618    2.3426    1.4121 C   0  0  0  0  0  0  0  0  0  0  0  0
   -3.7052    1.3342    1.7758 C   0  0  0  0  0  0  0  0  0  0  0  0
   -2.6498    0.9561    0.9766 C   0  0  0  0  0  0  0  0  0  0  0  0
   -2.4110    1.5804   -0.2545 C   0  0  0  0  0  0  0  0  0  0  0  0
   -1.1330    1.4240   -0.9145 C   0  0  0  0  0  0  0  0  0  0  0  0
    2.5526    2.0445    1.2949 C   0  0  0  0  0  0  0  0  0  0  0  0
    3.2970    2.7888    2.1923 C   0  0  0  0  0  0  0  0  0  0  0  0
    4.9512    2.7700    3.4836 H   0  0  0  0  0  0  0  0  0  0  0  0
    5.5295    0.4211    2.9495 H   0  0  0  0  0  0  0  0  0  0  0  0
    4.2347   -0.8881    1.3726 H   0  0  0  0  0  0  0  0  0  0  0  0
    1.8161   -2.6026   -0.9455 H   0  0  0  0  0  0  0  0  0  0  0  0
    3.3510   -3.7668   -2.4219 H   0  0  0  0  0  0  0  0  0  0  0  0
    5.4316   -2.6489   -3.2502 H   0  0  0  0  0  0  0  0  0  0  0  0
    5.8770   -0.3785   -2.5444 H   0  0  0  0  0  0  0  0  0  0  0  0
    4.4093    0.8207   -1.0883 H   0  0  0  0  0  0  0  0  0  0  0  0
    2.3505   -2.2177    1.8738 H   0  0  0  0  0  0  0  0  0  0  0  0
    0.5018   -3.5354    2.8374 H   0  0  0  0  0  0  0  0  0  0  0  0
   -1.6843   -4.2004    2.8254 H   0  0  0  0  0  0  0  0  0  0  0  0
   -3.8481   -4.2568    1.6414 H   0  0  0  0  0  0  0  0  0  0  0  0
   -5.1026   -3.6551   -0.1411 H   0  0  0  0  0  0  0  0  0  0  0  0
   -5.3817   -2.5067   -2.3033 H   0  0  0  0  0  0  0  0  0  0  0  0
   -3.7462   -0.7879   -2.8901 H   0  0  0  0  0  0  0  0  0  0  0  0
   -1.8593   -0.3657   -1.5385 H   0  0  0  0  0  0  0  0  0  0  0  0
    2.5169    2.0831   -1.7541 H   0  0  0  0  0  0  0  0  0  0  0  0
    0.7575    3.4763   -2.7648 H   0  0  0  0  0  0  0  0  0  0  0  0
   -1.3861    4.2138   -2.8599 H   0  0  0  0  0  0  0  0  0  0  0  0
   -3.6077    4.3416   -1.7887 H   0  0  0  0  0  0  0  0  0  0  0  0
   -5.0165    3.7888   -0.0506 H   0  0  0  0  0  0  0  0  0  0  0  0
   -5.3817    2.6030    2.0558 H   0  0  0  0  0  0  0  0  0  0  0  0
   -3.8675    0.8138    2.7314 H   0  0  0  0  0  0  0  0  0  0  0  0
   -1.9336    0.3289    1.4627 H   0  0  0  0  0  0  0  0  0  0  0  0
    1.7015    2.5036    0.8218 H   0  0  0  0  0  0  0  0  0  0  0  0
    3.0037    3.8174    2.3944 H   0  0  0  0  0  0  0  0  0  0  0  0
  1  2  2  0
  2  3  1  0
  3  4  2  0
  4  5  1  0
  5  6  1  0
  6  7  2  0
  7  8  1  0
  8  9  2  0
  9 10  1  0
 10 11  2  0
  5 12  1  0
 12 13  2  0
 13 14  1  0
 14 15  2  0
 15 16  1  0
 16 17  2  0
 17 18  1  0
 18 19  2  0
 19 20  1  0
 20 21  2  0
 21 22  1  0
 22 23  2  0
 23 24  1  0
 24 25  2  0
 25 26  1  0
 26 27  2  0
 27 28  1  0
 28 29  2  0
 29 30  1  0
 30 31  2  0
 31 32  1  0
 32 33  2  0
 33 34  1  0
 34 35  2  0
 35 36  1  0
 36 37  2  0
 37 38  1  0
 38 39  2  0
  4 40  1  0
 40 41  2  0
 41  1  1  0
 27  5  1  0
 39 30  1  0
 11  6  1  0
 25 12  1  0
 39 26  1  0
 24 15  1  0
 38 33  1  0
 23 18  1  0
  1 42  1  0
  2 43  1  0
  3 44  1  0
  7 45  1  0
  8 46  1  0
  9 47  1  0
 10 48  1  0
 11 49  1  0
 13 50  1  0
 14 51  1  0
 16 52  1  0
 17 53  1  0
 19 54  1  0
 20 55  1  0
 21 56  1  0
 22 57  1  0
 28 58  1  0
 29 59  1  0
 31 60  1  0
 32 61  1  0
 34 62  1  0
 35 63  1  0
 36 64  1  0
 37 65  1  0
 40 66  1  0
 41 67  1  0
M  END
