
     RDKit          3D

 33 36  0  0  0  0  0  0  0  0999 V2000
    7.6371    0.1895   -2.6805 Cl  0  0  0  0  0  0  0  0  0  0  0  0
    6.3741    0.0606   -1.4765 C   0  0  0  0  0  0  0  0  0  0  0  0
    6.7381   -0.1111   -0.1971 N   0  0  0  0  0  0  0  0  0  0  0  0
    5.7599   -0.2084    0.7165 C   0  0  0  0  0  0  0  0  0  0  0  0
    6.2470   -0.4348    2.4020 Cl  0  0  0  0  0  0  0  0  0  0  0  0
    4.4738   -0.1361    0.3574 N   0  0  0  0  0  0  0  0  0  0  0  0
    4.0674    0.0338   -0.9014 C   0  0  0  0  0  0  0  0  0  0  0  0
    2.7132    0.1129   -1.3028 N   0  0  0  0  0  0  0  0  0  0  0  0
    1.5795    0.0303   -0.4795 C   0  0  0  0  0  0  0  0  0  0  0  0
    1.5911   -0.1426    0.8663 C   0  0  0  0  0  0  0  0  0  0  0  0
    0.3893   -0.2098    1.5804 C   0  0  0  0  0  0  0  0  0  0  0  0
   -0.8250   -0.1027    0.9376 C   0  0  0  0  0  0  0  0  0  0  0  0
   -2.0157   -0.1665    1.6234 C   0  0  0  0  0  0  0  0  0  0  0  0
   -3.2394   -0.0618    1.0007 C   0  0  0  0  0  0  0  0  0  0  0  0
   -4.4441   -0.1214    1.6560 C   0  0  0  0  0  0  0  0  0  0  0  0
   -5.6661   -0.0117    0.9936 C   0  0  0  0  0  0  0  0  0  0  0  0
   -5.6573    0.1637   -0.3743 C   0  0  0  0  0  0  0  0  0  0  0  0
   -4.4747    0.2282   -1.0647 C   0  0  0  0  0  0  0  0  0  0  0  0
   -3.2665    0.1143   -0.3675 C   0  0  0  0  0  0  0  0  0  0  0  0
   -2.0819    0.1799   -1.0665 C   0  0  0  0  0  0  0  0  0  0  0  0
   -0.8404    0.0731   -0.4307 C   0  0  0  0  0  0  0  0  0  0  0  0
    0.3336    0.1351   -1.0994 C   0  0  0  0  0  0  0  0  0  0  0  0
    5.0787    0.1303   -1.8139 N   0  0  0  0  0  0  0  0  0  0  0  0
    2.5807    0.2490   -2.3420 H   0  0  0  0  0  0  0  0  0  0  0  0
    2.5003   -0.2312    1.4133 H   0  0  0  0  0  0  0  0  0  0  0  0
    0.3790   -0.3472    2.6525 H   0  0  0  0  0  0  0  0  0  0  0  0
   -2.0070   -0.3029    2.6852 H   0  0  0  0  0  0  0  0  0  0  0  0
   -4.4281   -0.2585    2.7220 H   0  0  0  0  0  0  0  0  0  0  0  0
   -6.6126   -0.0595    1.5161 H   0  0  0  0  0  0  0  0  0  0  0  0
   -6.6084    0.2474   -0.8765 H   0  0  0  0  0  0  0  0  0  0  0  0
   -4.4779    0.3663   -2.1405 H   0  0  0  0  0  0  0  0  0  0  0  0
   -2.0721    0.3167   -2.1348 H   0  0  0  0  0  0  0  0  0  0  0  0
    0.2743    0.2750   -2.1808 H   0  0  0  0  0  0  0  0  0  0  0  0
  1  2  1  0
  2  3  2  0
  3  4  1  0
  4  5  1  0
  4  6  2  0
  6  7  1  0
  7  8  1  0
  8  9  1  0
  9 10  2  0
 10 11  1  0
 11 12  2  0
 12 13  1  0
 13 14  2  0
 14 15  1  0
 15 16  2  0
 16 17  1  0
 17 18  2  0
 18 19  1  0
 19 20  2  0
 20 21  1  0
 21 22  2  0
  7 23  2  0
 23  2  1  0
 22  9  1  0
 21 12  1  0
 19 14  1  0
  8 24  1  0
 10 25  1  0
 11 26  1  0
 13 27  1  0
 15 28  1  0
 16 29  1  0
 17 30  1  0
 18 31  1  0
 20 32  1  0
 22 33  1  0
M  END
