
     RDKit          3D

 18 19  0  0  0  0  0  0  0  0999 V2000
    1.0060   -2.7477   -0.0147 O   0  0  0  0  0  0  0  0  0  0  0  0
    1.1117   -1.4806    0.0174 C   0  0  0  0  0  0  0  0  0  0  0  0
    2.4379   -0.8614    0.0899 C   0  0  0  0  0  0  0  0  0  0  0  0
    2.5407    0.4561    0.1230 C   0  0  0  0  0  0  0  0  0  0  0  0
    1.3405    1.2819    0.0874 C   0  0  0  0  0  0  0  0  0  0  0  0
    1.4048    2.5490    0.1177 O   0  0  0  0  0  0  0  0  0  0  0  0
    0.0168    0.6849    0.0156 C   0  0  0  0  0  0  0  0  0  0  0  0
   -1.1471    1.4478   -0.0197 C   0  0  0  0  0  0  0  0  0  0  0  0
   -2.4002    0.8757   -0.0879 C   0  0  0  0  0  0  0  0  0  0  0  0
   -2.5069   -0.4931   -0.1223 C   0  0  0  0  0  0  0  0  0  0  0  0
   -1.3620   -1.2592   -0.0879 C   0  0  0  0  0  0  0  0  0  0  0  0
   -0.1109   -0.6793   -0.0196 C   0  0  0  0  0  0  0  0  0  0  0  0
    3.3348   -1.4961    0.1161 H   0  0  0  0  0  0  0  0  0  0  0  0
    3.5272    0.8937    0.1763 H   0  0  0  0  0  0  0  0  0  0  0  0
   -1.0159    2.5307    0.0095 H   0  0  0  0  0  0  0  0  0  0  0  0
   -3.2783    1.5370   -0.1127 H   0  0  0  0  0  0  0  0  0  0  0  0
   -3.4871   -0.9168   -0.1751 H   0  0  0  0  0  0  0  0  0  0  0  0
   -1.4120   -2.3228   -0.1131 H   0  0  0  0  0  0  0  0  0  0  0  0
  1  2  2  0
  2  3  1  0
  3  4  2  0
  4  5  1  0
  5  6  2  0
  5  7  1  0
  7  8  2  0
  8  9  1  0
  9 10  2  0
 10 11  1  0
 11 12  2  0
 12  2  1  0
 12  7  1  0
  3 13  1  0
  4 14  1  0
  8 15  1  0
  9 16  1  0
 10 17  1  0
 11 18  1  0
M  END
