
     RDKit          3D

 27 29  0  0  0  0  0  0  0  0999 V2000
   -7.0874    0.5658    0.5856 C   0  0  0  0  0  0  0  0  0  0  0  0
   -5.7033    0.3113    0.0419 C   0  0  0  0  0  0  0  0  0  0  0  0
   -5.3354    0.1803   -1.2737 C   0  0  0  0  0  0  0  0  0  0  0  0
   -4.0870   -0.0366   -1.5299 N   0  0  0  0  0  0  0  0  0  0  0  0
   -3.2150   -0.1246   -0.5347 C   0  0  0  0  0  0  0  0  0  0  0  0
   -1.7891   -0.3608   -0.6182 N   0  0  0  0  0  0  0  0  0  0  0  0
   -0.9665    0.2704    0.0784 N   0  0  0  0  0  0  0  0  0  0  0  0
    0.4313   -0.0598   -0.0992 C   0  0  0  0  0  0  0  0  0  0  0  0
    0.9558   -1.2255   -0.5893 C   0  0  0  0  0  0  0  0  0  0  0  0
    2.2860   -1.3207   -0.6692 C   0  0  0  0  0  0  0  0  0  0  0  0
    3.0148   -0.2389   -0.2521 C   0  0  0  0  0  0  0  0  0  0  0  0
    4.4947   -0.1118   -0.2463 C   0  0  0  0  0  0  0  0  0  0  0  0
    5.2295    0.9647    0.1688 C   0  0  0  0  0  0  0  0  0  0  0  0
    6.5607    0.8649    0.0870 C   0  0  0  0  0  0  0  0  0  0  0  0
    7.0776   -0.3044   -0.4046 C   0  0  0  0  0  0  0  0  0  0  0  0
    5.6817   -1.2264   -0.7363 S   0  0  0  0  0  0  0  0  0  0  0  0
    1.8228    0.8702    0.2357 S   0  0  0  0  0  0  0  0  0  0  0  0
   -4.2058    0.1107    0.8381 S   0  0  0  0  0  0  0  0  0  0  0  0
   -7.7866    0.2447   -0.1918 H   0  0  0  0  0  0  0  0  0  0  0  0
   -7.2086    1.6487    0.7387 H   0  0  0  0  0  0  0  0  0  0  0  0
   -7.2586   -0.0150    1.5130 H   0  0  0  0  0  0  0  0  0  0  0  0
   -6.0985    0.2608   -2.0801 H   0  0  0  0  0  0  0  0  0  0  0  0
    0.2570   -2.0361   -0.8972 H   0  0  0  0  0  0  0  0  0  0  0  0
    2.8038   -2.2297   -1.0548 H   0  0  0  0  0  0  0  0  0  0  0  0
    4.7180    1.8771    0.5557 H   0  0  0  0  0  0  0  0  0  0  0  0
    7.2627    1.6760    0.3951 H   0  0  0  0  0  0  0  0  0  0  0  0
    8.1455   -0.5555   -0.5398 H   0  0  0  0  0  0  0  0  0  0  0  0
  1  2  1  0
  2  3  2  0
  3  4  1  0
  4  5  2  0
  5  6  1  0
  6  7  2  0
  7  8  1  0
  8  9  2  0
  9 10  1  0
 10 11  2  0
 11 12  1  0
 12 13  2  0
 13 14  1  0
 14 15  2  0
 15 16  1  0
 11 17  1  0
  5 18  1  0
 18  2  1  0
 17  8  1  0
 16 12  1  0
  1 19  1  0
  1 20  1  0
  1 21  1  0
  3 22  1  0
  9 23  1  0
 10 24  1  0
 13 25  1  0
 14 26  1  0
 15 27  1  0
M  END
