
     RDKit          3D

 92 99  0  0  0  0  0  0  0  0999 V2000
  -15.8600    0.1003    1.0678 C   0  0  0  0  0  0  0  0  0  0  0  0
  -15.4167    0.2131   -0.3742 C   0  0  0  0  0  0  0  0  0  0  0  0
  -13.9110    0.0531   -0.4810 C   0  0  0  0  0  0  0  0  0  0  0  0
  -13.2903    1.1410    0.3329 C   0  0  0  0  0  0  0  0  0  0  0  0
  -11.8023    1.0557    0.2787 C   0  0  0  0  0  0  0  0  0  0  0  0
  -11.2303   -0.2374    0.8008 C   0  0  0  0  0  0  0  0  0  0  0  0
   -9.7868   -0.1785    0.6944 N   0  0  0  0  0  0  0  0  0  0  0  0
   -9.0651    0.3472    1.8097 C   0  0  0  0  0  0  0  0  0  0  0  0
   -9.6649    0.7377    2.8266 O   0  0  0  0  0  0  0  0  0  0  0  0
   -7.6075    0.4312    1.7651 C   0  0  0  0  0  0  0  0  0  0  0  0
   -6.9863    0.9514    2.8848 C   0  0  0  0  0  0  0  0  0  0  0  0
   -5.6183    1.0534    2.8991 C   0  0  0  0  0  0  0  0  0  0  0  0
   -4.8900    0.6299    1.7837 C   0  0  0  0  0  0  0  0  0  0  0  0
   -5.4697    0.1098    0.6572 C   0  0  0  0  0  0  0  0  0  0  0  0
   -4.7557   -0.3020   -0.4251 C   0  0  0  0  0  0  0  0  0  0  0  0
   -3.2950   -0.2355   -0.4923 C   0  0  0  0  0  0  0  0  0  0  0  0
   -2.5186   -0.6431   -1.5648 C   0  0  0  0  0  0  0  0  0  0  0  0
   -1.2010   -0.5177   -1.4645 C   0  0  0  0  0  0  0  0  0  0  0  0
   -0.6895    0.0058   -0.3092 C   0  0  0  0  0  0  0  0  0  0  0  0
    0.7285    0.2338    0.0278 C   0  0  0  0  0  0  0  0  0  0  0  0
    1.2388    0.7561    1.1747 C   0  0  0  0  0  0  0  0  0  0  0  0
    2.5649    0.8724    1.2710 C   0  0  0  0  0  0  0  0  0  0  0  0
    3.3267    0.4523    0.1951 C   0  0  0  0  0  0  0  0  0  0  0  0
    4.8035    0.4955    0.1314 C   0  0  0  0  0  0  0  0  0  0  0  0
    5.5028    1.0403    1.1947 C   0  0  0  0  0  0  0  0  0  0  0  0
    6.8774    1.0711    1.1439 C   0  0  0  0  0  0  0  0  0  0  0  0
    7.5817    0.5795    0.0730 C   0  0  0  0  0  0  0  0  0  0  0  0
    6.8894    0.0361   -0.9883 C   0  0  0  0  0  0  0  0  0  0  0  0
    7.5978   -0.4589   -2.0616 C   0  0  0  0  0  0  0  0  0  0  0  0
    6.9201   -1.0074   -3.1299 C   0  0  0  0  0  0  0  0  0  0  0  0
    5.5575   -1.0728   -3.1512 C   0  0  0  0  0  0  0  0  0  0  0  0
    4.8658   -0.5601   -2.0427 C   0  0  0  0  0  0  0  0  0  0  0  0
    5.4786    0.0005   -0.9445 C   0  0  0  0  0  0  0  0  0  0  0  0
    9.0476   -0.4066   -2.0683 C   0  0  0  0  0  0  0  0  0  0  0  0
    9.7162   -0.8557   -3.0436 O   0  0  0  0  0  0  0  0  0  0  0  0
    9.7959    0.1471   -0.9891 N   0  0  0  0  0  0  0  0  0  0  0  0
   11.2675    0.1847   -1.0171 C   0  0  0  0  0  0  0  0  0  0  0  0
   11.7625   -1.0928   -0.3946 C   0  0  0  0  0  0  0  0  0  0  0  0
   13.2598   -1.1802   -0.3876 C   0  0  0  0  0  0  0  0  0  0  0  0
   13.8439   -0.0493    0.3937 C   0  0  0  0  0  0  0  0  0  0  0  0
   15.3679   -0.1235    0.4325 C   0  0  0  0  0  0  0  0  0  0  0  0
   15.9423    1.0238    1.2222 C   0  0  0  0  0  0  0  0  0  0  0  0
    9.0380    0.6485    0.1001 C   0  0  0  0  0  0  0  0  0  0  0  0
    9.6731    1.1478    1.0756 O   0  0  0  0  0  0  0  0  0  0  0  0
    2.1164   -0.0768   -0.8764 S   0  0  0  0  0  0  0  0  0  0  0  0
   -2.0943    0.3009    0.5906 S   0  0  0  0  0  0  0  0  0  0  0  0
   -5.4508   -0.8073   -1.4967 C   0  0  0  0  0  0  0  0  0  0  0  0
   -6.8403   -0.9034   -1.4946 C   0  0  0  0  0  0  0  0  0  0  0  0
   -7.5774   -0.4904   -0.4053 C   0  0  0  0  0  0  0  0  0  0  0  0
   -6.8761    0.0188    0.6746 C   0  0  0  0  0  0  0  0  0  0  0  0
   -9.0486   -0.5980   -0.4141 C   0  0  0  0  0  0  0  0  0  0  0  0
   -9.6401   -1.0631   -1.4093 O   0  0  0  0  0  0  0  0  0  0  0  0
  -16.7938   -0.4985    1.0802 H   0  0  0  0  0  0  0  0  0  0  0  0
  -15.1137   -0.4243    1.6961 H   0  0  0  0  0  0  0  0  0  0  0  0
  -16.0552    1.0881    1.5335 H   0  0  0  0  0  0  0  0  0  0  0  0
  -15.6512    1.2461   -0.7291 H   0  0  0  0  0  0  0  0  0  0  0  0
  -15.8722   -0.5701   -1.0010 H   0  0  0  0  0  0  0  0  0  0  0  0
  -13.6078    0.1582   -1.5223 H   0  0  0  0  0  0  0  0  0  0  0  0
  -13.6285   -0.9181   -0.0216 H   0  0  0  0  0  0  0  0  0  0  0  0
  -13.5643    2.1631   -0.0323 H   0  0  0  0  0  0  0  0  0  0  0  0
  -13.7015    1.0657    1.3603 H   0  0  0  0  0  0  0  0  0  0  0  0
  -11.2994    1.9411    0.7165 H   0  0  0  0  0  0  0  0  0  0  0  0
  -11.5226    1.0888   -0.8157 H   0  0  0  0  0  0  0  0  0  0  0  0
  -11.6257   -1.1060    0.2280 H   0  0  0  0  0  0  0  0  0  0  0  0
  -11.4970   -0.3505    1.8599 H   0  0  0  0  0  0  0  0  0  0  0  0
   -7.5731    1.2828    3.7600 H   0  0  0  0  0  0  0  0  0  0  0  0
   -5.0951    1.4530    3.7504 H   0  0  0  0  0  0  0  0  0  0  0  0
   -3.8216    0.7277    1.8380 H   0  0  0  0  0  0  0  0  0  0  0  0
   -3.0002   -1.0635   -2.4823 H   0  0  0  0  0  0  0  0  0  0  0  0
   -0.4864   -0.8177   -2.2732 H   0  0  0  0  0  0  0  0  0  0  0  0
    0.5443    1.0687    1.9944 H   0  0  0  0  0  0  0  0  0  0  0  0
    3.0571    1.2899    2.1793 H   0  0  0  0  0  0  0  0  0  0  0  0
    4.9536    1.4237    2.0275 H   0  0  0  0  0  0  0  0  0  0  0  0
    7.4194    1.5053    1.9915 H   0  0  0  0  0  0  0  0  0  0  0  0
    7.4922   -1.3921   -3.9651 H   0  0  0  0  0  0  0  0  0  0  0  0
    4.9750   -1.4888   -3.9556 H   0  0  0  0  0  0  0  0  0  0  0  0
    3.7930   -0.6110   -2.0544 H   0  0  0  0  0  0  0  0  0  0  0  0
   11.6223    1.0788   -0.4435 H   0  0  0  0  0  0  0  0  0  0  0  0
   11.5651    0.1906   -2.0676 H   0  0  0  0  0  0  0  0  0  0  0  0
   11.3020   -1.9273   -0.9923 H   0  0  0  0  0  0  0  0  0  0  0  0
   11.3461   -1.1298    0.6486 H   0  0  0  0  0  0  0  0  0  0  0  0
   13.6031   -1.0785   -1.4586 H   0  0  0  0  0  0  0  0  0  0  0  0
   13.6179   -2.1793   -0.0335 H   0  0  0  0  0  0  0  0  0  0  0  0
   13.5755    0.9056   -0.1242 H   0  0  0  0  0  0  0  0  0  0  0  0
   13.4381   -0.0192    1.4103 H   0  0  0  0  0  0  0  0  0  0  0  0
   15.7617   -0.0992   -0.5909 H   0  0  0  0  0  0  0  0  0  0  0  0
   15.6438   -1.1047    0.8800 H   0  0  0  0  0  0  0  0  0  0  0  0
   16.7755    0.6154    1.8317 H   0  0  0  0  0  0  0  0  0  0  0  0
   15.2104    1.4697    1.9237 H   0  0  0  0  0  0  0  0  0  0  0  0
   16.3129    1.7864    0.5113 H   0  0  0  0  0  0  0  0  0  0  0  0
   -4.9285   -1.1455   -2.3751 H   0  0  0  0  0  0  0  0  0  0  0  0
   -7.3488   -1.3074   -2.3587 H   0  0  0  0  0  0  0  0  0  0  0  0
  1  2  1  0
  2  3  1  0
  3  4  1  0
  4  5  1  0
  5  6  1  0
  6  7  1  0
  7  8  1  0
  8  9  2  0
  8 10  1  0
 10 11  1  0
 11 12  2  0
 12 13  1  0
 13 14  2  0
 14 15  1  0
 15 16  1  0
 16 17  2  0
 17 18  1  0
 18 19  2  0
 19 20  1  0
 20 21  2  0
 21 22  1  0
 22 23  2  0
 23 24  1  0
 24 25  2  0
 25 26  1  0
 26 27  2  0
 27 28  1  0
 28 29  2  0
 29 30  1  0
 30 31  2  0
 31 32  1  0
 32 33  2  0
 29 34  1  0
 34 35  2  0
 34 36  1  0
 36 37  1  0
 37 38  1  0
 38 39  1  0
 39 40  1  0
 40 41  1  0
 41 42  1  0
 36 43  1  0
 43 44  2  0
 23 45  1  0
 19 46  1  0
 15 47  2  0
 47 48  1  0
 48 49  2  0
 49 50  1  0
 49 51  1  0
 51 52  2  0
 51  7  1  0
 50 10  2  0
 50 14  1  0
 46 16  1  0
 45 20  1  0
 33 24  1  0
 43 27  1  0
 33 28  1  0
  1 53  1  0
  1 54  1  0
  1 55  1  0
  2 56  1  0
  2 57  1  0
  3 58  1  0
  3 59  1  0
  4 60  1  0
  4 61  1  0
  5 62  1  0
  5 63  1  0
  6 64  1  0
  6 65  1  0
 11 66  1  0
 12 67  1  0
 13 68  1  0
 17 69  1  0
 18 70  1  0
 21 71  1  0
 22 72  1  0
 25 73  1  0
 26 74  1  0
 30 75  1  0
 31 76  1  0
 32 77  1  0
 37 78  1  0
 37 79  1  0
 38 80  1  0
 38 81  1  0
 39 82  1  0
 39 83  1  0
 40 84  1  0
 40 85  1  0
 41 86  1  0
 41 87  1  0
 42 88  1  0
 42 89  1  0
 42 90  1  0
 47 91  1  0
 48 92  1  0
M  END
