
     RDKit          3D

 35 38  0  0  0  0  0  0  0  0999 V2000
    4.9830   -1.6876    0.0988 C   0  0  0  0  0  0  0  0  0  0  0  0
    4.8572   -0.3498    0.3471 C   0  0  0  0  0  0  0  0  0  0  0  0
    3.5777    0.2623    0.3666 C   0  0  0  0  0  0  0  0  0  0  0  0
    2.4667   -0.4433    0.1431 C   0  0  0  0  0  0  0  0  0  0  0  0
    1.1068    0.0857    0.0752 C   0  0  0  0  0  0  0  0  0  0  0  0
    0.0359   -0.6907    0.1800 O   0  0  0  0  0  0  0  0  0  0  0  0
   -1.0906   -0.0290    0.0939 C   0  0  0  0  0  0  0  0  0  0  0  0
   -2.4096   -0.6313    0.1754 C   0  0  0  0  0  0  0  0  0  0  0  0
   -3.5639    0.0133    0.4127 C   0  0  0  0  0  0  0  0  0  0  0  0
   -4.8162   -0.6283    0.4197 C   0  0  0  0  0  0  0  0  0  0  0  0
   -4.8818   -1.9807    0.1756 C   0  0  0  0  0  0  0  0  0  0  0  0
   -3.7202   -2.6776   -0.0702 C   0  0  0  0  0  0  0  0  0  0  0  0
   -2.5290   -2.0207   -0.0691 C   0  0  0  0  0  0  0  0  0  0  0  0
   -0.7473    1.2803   -0.0852 C   0  0  0  0  0  0  0  0  0  0  0  0
   -1.4320    2.4608   -0.2792 C   0  0  0  0  0  0  0  0  0  0  0  0
   -0.7971    3.6739   -0.4764 C   0  0  0  0  0  0  0  0  0  0  0  0
    0.5603    3.7507   -0.4887 C   0  0  0  0  0  0  0  0  0  0  0  0
    1.2865    2.5683   -0.2965 C   0  0  0  0  0  0  0  0  0  0  0  0
    0.6705    1.3568   -0.0976 C   0  0  0  0  0  0  0  0  0  0  0  0
    2.6339   -1.8272   -0.1099 C   0  0  0  0  0  0  0  0  0  0  0  0
    3.8558   -2.4402   -0.1331 C   0  0  0  0  0  0  0  0  0  0  0  0
    5.9534   -2.1671    0.0809 H   0  0  0  0  0  0  0  0  0  0  0  0
    5.7143    0.2888    0.5361 H   0  0  0  0  0  0  0  0  0  0  0  0
    3.5537    1.3039    0.6101 H   0  0  0  0  0  0  0  0  0  0  0  0
   -3.6237    1.0530    0.6573 H   0  0  0  0  0  0  0  0  0  0  0  0
   -5.7139   -0.0583    0.6155 H   0  0  0  0  0  0  0  0  0  0  0  0
   -5.8228   -2.5029    0.1734 H   0  0  0  0  0  0  0  0  0  0  0  0
   -3.7326   -3.7588   -0.2686 H   0  0  0  0  0  0  0  0  0  0  0  0
   -1.5879   -2.5281   -0.2584 H   0  0  0  0  0  0  0  0  0  0  0  0
   -2.5152    2.4322   -0.3075 H   0  0  0  0  0  0  0  0  0  0  0  0
   -1.4155    4.5503   -0.6189 H   0  0  0  0  0  0  0  0  0  0  0  0
    1.1044    4.6693   -0.6379 H   0  0  0  0  0  0  0  0  0  0  0  0
    2.3557    2.6173   -0.3357 H   0  0  0  0  0  0  0  0  0  0  0  0
    1.7625   -2.4327   -0.2943 H   0  0  0  0  0  0  0  0  0  0  0  0
    3.9210   -3.5127   -0.3341 H   0  0  0  0  0  0  0  0  0  0  0  0
  1  2  2  0
  2  3  1  0
  3  4  2  0
  4  5  1  0
  5  6  1  0
  6  7  1  0
  7  8  1  0
  8  9  2  0
  9 10  1  0
 10 11  2  0
 11 12  1  0
 12 13  2  0
  7 14  2  0
 14 15  1  0
 15 16  2  0
 16 17  1  0
 17 18  2  0
 18 19  1  0
  4 20  1  0
 20 21  2  0
 21  1  1  0
 19  5  2  0
 13  8  1  0
 19 14  1  0
  1 22  1  0
  2 23  1  0
  3 24  1  0
  9 25  1  0
 10 26  1  0
 11 27  1  0
 12 28  1  0
 13 29  1  0
 15 30  1  0
 16 31  1  0
 17 32  1  0
 18 33  1  0
 20 34  1  0
 21 35  1  0
M  END
