
     RDKit          3D

 96104  0  0  0  0  0  0  0  0999 V2000
   -5.1973   -1.8337    1.2714 C   0  0  0  0  0  0  0  0  0  0  0  0
   -3.8648   -1.1752    1.2751 C   0  0  0  0  0  0  0  0  0  0  0  0
   -2.8563   -1.7940    2.0080 C   0  0  0  0  0  0  0  0  0  0  0  0
   -1.6164   -1.2289    2.0728 C   0  0  0  0  0  0  0  0  0  0  0  0
   -1.2796   -0.0346    1.4338 C   0  0  0  0  0  0  0  0  0  0  0  0
   -2.2888    0.5525    0.7202 C   0  0  0  0  0  0  0  0  0  0  0  0
   -3.5798    0.0039    0.6271 C   0  0  0  0  0  0  0  0  0  0  0  0
   -4.6115    0.6473   -0.0932 N   0  0  0  0  0  0  0  0  0  0  0  0
   -5.1826    0.0767   -1.2539 C   0  0  0  0  0  0  0  0  0  0  0  0
   -4.6527   -1.1170   -1.7103 C   0  0  0  0  0  0  0  0  0  0  0  0
   -5.1339   -1.7588   -2.8561 C   0  0  0  0  0  0  0  0  0  0  0  0
   -6.1703   -1.1475   -3.5231 C   0  0  0  0  0  0  0  0  0  0  0  0
   -6.6928    0.0329   -3.0715 C   0  0  0  0  0  0  0  0  0  0  0  0
   -6.2029    0.6646   -1.9243 C   0  0  0  0  0  0  0  0  0  0  0  0
   -6.8119    1.9340   -1.5127 C   0  0  0  0  0  0  0  0  0  0  0  0
   -8.3041    1.6590   -1.3061 C   0  0  0  0  0  0  0  0  0  0  0  0
   -6.7758    2.9326   -2.6891 C   0  0  0  0  0  0  0  0  0  0  0  0
   -6.1932    2.4978   -0.3216 C   0  0  0  0  0  0  0  0  0  0  0  0
   -6.6704    3.7197    0.1829 C   0  0  0  0  0  0  0  0  0  0  0  0
   -6.1557    4.3230    1.3024 C   0  0  0  0  0  0  0  0  0  0  0  0
   -5.1200    3.6822    1.9489 C   0  0  0  0  0  0  0  0  0  0  0  0
   -4.6272    2.4745    1.4746 C   0  0  0  0  0  0  0  0  0  0  0  0
   -5.1647    1.8891    0.3438 C   0  0  0  0  0  0  0  0  0  0  0  0
    0.0528    0.5584    1.5252 C   0  0  0  0  0  0  0  0  0  0  0  0
    0.3091    1.5301    0.4114 C   0  0  0  0  0  0  0  0  0  0  0  0
    0.1935    1.3738    2.8252 C   0  0  0  0  0  0  0  0  0  0  0  0
    1.1683   -0.4322    1.5179 C   0  0  0  0  0  0  0  0  0  0  0  0
    2.3454   -0.1667    0.8551 C   0  0  0  0  0  0  0  0  0  0  0  0
    3.4275   -1.0192    0.8064 C   0  0  0  0  0  0  0  0  0  0  0  0
    4.6186   -0.6851    0.1310 N   0  0  0  0  0  0  0  0  0  0  0  0
    4.9701   -1.4631   -1.0078 C   0  0  0  0  0  0  0  0  0  0  0  0
    4.1609   -2.4852   -1.4871 C   0  0  0  0  0  0  0  0  0  0  0  0
    4.5197   -3.2275   -2.6067 C   0  0  0  0  0  0  0  0  0  0  0  0
    5.7116   -2.8934   -3.2073 C   0  0  0  0  0  0  0  0  0  0  0  0
    6.5406   -1.8940   -2.7710 C   0  0  0  0  0  0  0  0  0  0  0  0
    6.1575   -1.1546   -1.6348 C   0  0  0  0  0  0  0  0  0  0  0  0
    7.0811   -0.0791   -1.2157 C   0  0  0  0  0  0  0  0  0  0  0  0
    8.4433   -0.7187   -0.9735 C   0  0  0  0  0  0  0  0  0  0  0  0
    7.2845    0.8955   -2.3592 C   0  0  0  0  0  0  0  0  0  0  0  0
    6.6032    0.6478   -0.0285 C   0  0  0  0  0  0  0  0  0  0  0  0
    7.3885    1.6999    0.4887 C   0  0  0  0  0  0  0  0  0  0  0  0
    6.9852    2.4039    1.5945 C   0  0  0  0  0  0  0  0  0  0  0  0
    5.7972    2.1041    2.2356 C   0  0  0  0  0  0  0  0  0  0  0  0
    5.0200    1.1001    1.7649 C   0  0  0  0  0  0  0  0  0  0  0  0
    5.4333    0.3872    0.6408 C   0  0  0  0  0  0  0  0  0  0  0  0
    3.3459   -2.2178    1.4568 C   0  0  0  0  0  0  0  0  0  0  0  0
    4.4301   -3.2366    1.5272 C   0  0  0  0  0  0  0  0  0  0  0  0
    2.1821   -2.5208    2.1315 C   0  0  0  0  0  0  0  0  0  0  0  0
    1.1145   -1.6513    2.1640 C   0  0  0  0  0  0  0  0  0  0  0  0
   -0.3780   -2.0393    2.9972 S   0  0  0  0  0  6  0  0  0  0  0  0
   -0.4112   -1.5732    4.4049 O   0  0  0  0  0  0  0  0  0  0  0  0
   -0.5860   -3.5287    3.0120 O   0  0  0  0  0  0  0  0  0  0  0  0
   -5.9697   -1.1531    0.8716 H   0  0  0  0  0  0  0  0  0  0  0  0
   -5.2099   -2.7492    0.6629 H   0  0  0  0  0  0  0  0  0  0  0  0
   -5.4541   -2.1285    2.3094 H   0  0  0  0  0  0  0  0  0  0  0  0
   -3.0844   -2.7287    2.5203 H   0  0  0  0  0  0  0  0  0  0  0  0
   -2.2073    1.4894    0.1599 H   0  0  0  0  0  0  0  0  0  0  0  0
   -3.8278   -1.5515   -1.1626 H   0  0  0  0  0  0  0  0  0  0  0  0
   -4.7105   -2.6841   -3.1939 H   0  0  0  0  0  0  0  0  0  0  0  0
   -6.5711   -1.6168   -4.4185 H   0  0  0  0  0  0  0  0  0  0  0  0
   -7.5164    0.4878   -3.6300 H   0  0  0  0  0  0  0  0  0  0  0  0
   -8.5844    2.1414   -0.3440 H   0  0  0  0  0  0  0  0  0  0  0  0
   -8.9411    2.0870   -2.0755 H   0  0  0  0  0  0  0  0  0  0  0  0
   -8.5104    0.5689   -1.2486 H   0  0  0  0  0  0  0  0  0  0  0  0
   -5.7567    3.0628   -3.0617 H   0  0  0  0  0  0  0  0  0  0  0  0
   -7.2357    3.8597   -2.3049 H   0  0  0  0  0  0  0  0  0  0  0  0
   -7.4872    2.5196   -3.4351 H   0  0  0  0  0  0  0  0  0  0  0  0
   -7.4823    4.2304   -0.3166 H   0  0  0  0  0  0  0  0  0  0  0  0
   -6.5553    5.2664    1.6558 H   0  0  0  0  0  0  0  0  0  0  0  0
   -4.6990    4.1408    2.8347 H   0  0  0  0  0  0  0  0  0  0  0  0
   -3.8090    1.9622    1.9861 H   0  0  0  0  0  0  0  0  0  0  0  0
    1.1682    2.2348    0.7170 H   0  0  0  0  0  0  0  0  0  0  0  0
   -0.5129    2.2049    0.1543 H   0  0  0  0  0  0  0  0  0  0  0  0
    0.5631    0.9805   -0.5182 H   0  0  0  0  0  0  0  0  0  0  0  0
    0.6841    0.7887    3.6266 H   0  0  0  0  0  0  0  0  0  0  0  0
   -0.8249    1.7031    3.1579 H   0  0  0  0  0  0  0  0  0  0  0  0
    0.7606    2.2902    2.5775 H   0  0  0  0  0  0  0  0  0  0  0  0
    2.4031    0.8136    0.3220 H   0  0  0  0  0  0  0  0  0  0  0  0
    3.2270   -2.6763   -0.9618 H   0  0  0  0  0  0  0  0  0  0  0  0
    3.8728   -4.0117   -2.9523 H   0  0  0  0  0  0  0  0  0  0  0  0
    6.0444   -3.4495   -4.0980 H   0  0  0  0  0  0  0  0  0  0  0  0
    7.4636   -1.6890   -3.2947 H   0  0  0  0  0  0  0  0  0  0  0  0
    8.4966   -1.0056    0.0809 H   0  0  0  0  0  0  0  0  0  0  0  0
    8.5998   -1.6259   -1.5876 H   0  0  0  0  0  0  0  0  0  0  0  0
    9.2592    0.0054   -1.2600 H   0  0  0  0  0  0  0  0  0  0  0  0
    7.3016    0.3358   -3.3153 H   0  0  0  0  0  0  0  0  0  0  0  0
    6.5182    1.6976   -2.3523 H   0  0  0  0  0  0  0  0  0  0  0  0
    8.2831    1.3641   -2.2468 H   0  0  0  0  0  0  0  0  0  0  0  0
    8.3010    1.9381    0.0053 H   0  0  0  0  0  0  0  0  0  0  0  0
    7.6381    3.2099    1.9487 H   0  0  0  0  0  0  0  0  0  0  0  0
    5.4851    2.6720    3.1173 H   0  0  0  0  0  0  0  0  0  0  0  0
    4.0655    0.8091    2.2328 H   0  0  0  0  0  0  0  0  0  0  0  0
    4.0742   -4.0960    0.9155 H   0  0  0  0  0  0  0  0  0  0  0  0
    4.5216   -3.6650    2.5612 H   0  0  0  0  0  0  0  0  0  0  0  0
    5.3762   -2.9343    1.0983 H   0  0  0  0  0  0  0  0  0  0  0  0
    2.0864   -3.4807    2.6646 H   0  0  0  0  0  0  0  0  0  0  0  0
  1  2  1  0
  2  3  2  0
  3  4  1  0
  4  5  2  0
  5  6  1  0
  6  7  2  0
  7  8  1  0
  8  9  1  0
  9 10  2  0
 10 11  1  0
 11 12  2  0
 12 13  1  0
 13 14  2  0
 14 15  1  0
 15 16  1  0
 15 17  1  0
 15 18  1  0
 18 19  2  0
 19 20  1  0
 20 21  2  0
 21 22  1  0
 22 23  2  0
  5 24  1  0
 24 25  1  0
 24 26  1  0
 24 27  1  0
 27 28  2  0
 28 29  1  0
 29 30  1  0
 30 31  1  0
 31 32  2  0
 32 33  1  0
 33 34  2  0
 34 35  1  0
 35 36  2  0
 36 37  1  0
 37 38  1  0
 37 39  1  0
 37 40  1  0
 40 41  2  0
 41 42  1  0
 42 43  2  0
 43 44  1  0
 44 45  2  0
 29 46  2  0
 46 47  1  0
 46 48  1  0
 48 49  2  0
 49 50  1  0
 50 51  2  0
 50 52  2  0
  7  2  1  0
 23  8  1  0
 49 27  1  0
 50  4  1  0
 14  9  1  0
 23 18  1  0
 45 30  1  0
 36 31  1  0
 45 40  1  0
  1 53  1  0
  1 54  1  0
  1 55  1  0
  3 56  1  0
  6 57  1  0
 10 58  1  0
 11 59  1  0
 12 60  1  0
 13 61  1  0
 16 62  1  0
 16 63  1  0
 16 64  1  0
 17 65  1  0
 17 66  1  0
 17 67  1  0
 19 68  1  0
 20 69  1  0
 21 70  1  0
 22 71  1  0
 25 72  1  0
 25 73  1  0
 25 74  1  0
 26 75  1  0
 26 76  1  0
 26 77  1  0
 28 78  1  0
 32 79  1  0
 33 80  1  0
 34 81  1  0
 35 82  1  0
 38 83  1  0
 38 84  1  0
 38 85  1  0
 39 86  1  0
 39 87  1  0
 39 88  1  0
 41 89  1  0
 42 90  1  0
 43 91  1  0
 44 92  1  0
 47 93  1  0
 47 94  1  0
 47 95  1  0
 48 96  1  0
M  END
