
     RDKit          3D

 39 43  0  0  0  0  0  0  0  0999 V2000
   -3.9237    0.3927    1.0440 C   0  0  0  0  0  0  0  0  0  0  0  0
   -2.6232   -0.2994    0.7542 C   0  0  0  0  0  0  0  0  0  0  0  0
   -2.5367   -1.6663    0.8949 C   0  0  0  0  0  0  0  0  0  0  0  0
   -1.3724   -2.3377    0.6418 C   0  0  0  0  0  0  0  0  0  0  0  0
   -1.3455   -3.7216    0.8017 C   0  0  0  0  0  0  0  0  0  0  0  0
   -0.1827   -4.3818    0.5478 C   0  0  0  0  0  0  0  0  0  0  0  0
    0.9741   -3.7421    0.1382 C   0  0  0  0  0  0  0  0  0  0  0  0
    0.9345   -2.3763   -0.0159 C   0  0  0  0  0  0  0  0  0  0  0  0
   -0.2188   -1.6637    0.2290 C   0  0  0  0  0  0  0  0  0  0  0  0
   -0.2946   -0.2785    0.0830 C   0  0  0  0  0  0  0  0  0  0  0  0
   -1.4992    0.3765    0.3496 C   0  0  0  0  0  0  0  0  0  0  0  0
   -1.2951    1.7270    0.1273 C   0  0  0  0  0  0  0  0  0  0  0  0
   -2.0895    2.8214    0.2228 C   0  0  0  0  0  0  0  0  0  0  0  0
   -1.5478    4.0602   -0.0829 C   0  0  0  0  0  0  0  0  0  0  0  0
   -0.2521    4.1936   -0.4712 C   0  0  0  0  0  0  0  0  0  0  0  0
    0.5502    3.0803   -0.5666 C   0  0  0  0  0  0  0  0  0  0  0  0
    0.0060    1.8508   -0.2613 C   0  0  0  0  0  0  0  0  0  0  0  0
    0.6167    0.6160   -0.2870 N   0  0  0  0  0  0  0  0  0  0  0  0
    1.9866    0.4250   -0.6572 C   0  0  0  0  0  0  0  0  0  0  0  0
    2.3915    0.2093   -1.9158 N   0  0  0  0  0  0  0  0  0  0  0  0
    3.6995    0.0664   -2.1752 C   0  0  0  0  0  0  0  0  0  0  0  0
    4.6470    0.1347   -1.1831 C   0  0  0  0  0  0  0  0  0  0  0  0
    4.2365    0.3565    0.1140 C   0  0  0  0  0  0  0  0  0  0  0  0
    2.9185    0.4907    0.3082 N   0  0  0  0  0  0  0  0  0  0  0  0
   -3.8401    1.0469    1.9342 H   0  0  0  0  0  0  0  0  0  0  0  0
   -4.3840    0.8352    0.1627 H   0  0  0  0  0  0  0  0  0  0  0  0
   -4.6444   -0.4123    1.3851 H   0  0  0  0  0  0  0  0  0  0  0  0
   -3.4315   -2.2262    1.2195 H   0  0  0  0  0  0  0  0  0  0  0  0
   -2.2431   -4.2165    1.1193 H   0  0  0  0  0  0  0  0  0  0  0  0
   -0.1918   -5.4698    0.6821 H   0  0  0  0  0  0  0  0  0  0  0  0
    1.8698   -4.3287   -0.0480 H   0  0  0  0  0  0  0  0  0  0  0  0
    1.8260   -1.9018   -0.3293 H   0  0  0  0  0  0  0  0  0  0  0  0
   -3.0945    2.7732    0.5171 H   0  0  0  0  0  0  0  0  0  0  0  0
   -2.1870    4.9455   -0.0067 H   0  0  0  0  0  0  0  0  0  0  0  0
    0.2169    5.1449   -0.7212 H   0  0  0  0  0  0  0  0  0  0  0  0
    1.5927    3.1546   -0.8749 H   0  0  0  0  0  0  0  0  0  0  0  0
    4.0406   -0.1096   -3.1960 H   0  0  0  0  0  0  0  0  0  0  0  0
    5.7188    0.0187   -1.3886 H   0  0  0  0  0  0  0  0  0  0  0  0
    4.9716    0.4125    0.9043 H   0  0  0  0  0  0  0  0  0  0  0  0
  1  2  1  0
  2  3  2  0
  3  4  1  0
  4  5  2  0
  5  6  1  0
  6  7  2  0
  7  8  1  0
  8  9  2  0
  9 10  1  0
 10 11  2  0
 11 12  1  0
 12 13  2  0
 13 14  1  0
 14 15  2  0
 15 16  1  0
 16 17  2  0
 17 18  1  0
 18 19  1  0
 19 20  2  0
 20 21  1  0
 21 22  2  0
 22 23  1  0
 23 24  2  0
 11  2  1  0
 17 12  1  0
 24 19  1  0
  9  4  1  0
 18 10  1  0
  1 25  1  0
  1 26  1  0
  1 27  1  0
  3 28  1  0
  5 29  1  0
  6 30  1  0
  7 31  1  0
  8 32  1  0
 13 33  1  0
 14 34  1  0
 15 35  1  0
 16 36  1  0
 21 37  1  0
 22 38  1  0
 23 39  1  0
M  END
