
     RDKit          3D

 74 78  0  0  0  0  0  0  0  0999 V2000
   -0.9261   -7.8406    1.3225 C   0  0  0  0  0  0  0  0  0  0  0  0
   -0.8597   -6.3370    1.5255 C   0  0  0  0  0  0  0  0  0  0  0  0
   -1.0779   -5.5875    0.2609 C   0  0  0  0  0  0  0  0  0  0  0  0
   -1.0232   -4.1001    0.4039 C   0  0  0  0  0  0  0  0  0  0  0  0
   -2.0386   -3.2682    0.2249 C   0  0  0  0  0  0  0  0  0  0  0  0
   -1.5546   -1.9062    0.4420 C   0  0  0  0  0  0  0  0  0  0  0  0
   -0.2791   -2.0570    0.7320 N   0  0  0  0  0  0  0  0  0  0  0  0
    0.1479   -3.2949    0.7399 C   0  0  0  0  0  0  0  0  0  0  0  0
    1.4920   -3.5891    1.0170 C   0  0  0  0  0  0  0  0  0  0  0  0
    2.5101   -2.6371    0.8479 C   0  0  0  0  0  0  0  0  0  0  0  0
    2.3612   -1.2582    0.6502 C   0  0  0  0  0  0  0  0  0  0  0  0
    1.6386   -0.3411    1.3303 N   0  0  0  0  0  0  0  0  0  0  0  0
    1.7605    0.7974    0.6447 C   0  0  0  0  0  0  0  0  0  0  0  0
    2.5707    0.6448   -0.4775 C   0  0  0  0  0  0  0  0  0  0  0  0
    2.9630   -0.6711   -0.4853 C   0  0  0  0  0  0  0  0  0  0  0  0
    3.8789   -1.2683   -1.5186 C   0  0  0  0  0  0  0  0  0  0  0  0
    5.2874   -1.4079   -1.0610 C   0  0  0  0  0  0  0  0  0  0  0  0
    6.0627   -2.0251   -2.2288 C   0  0  0  0  0  0  0  0  0  0  0  0
    1.1063    2.0548    0.8435 C   0  0  0  0  0  0  0  0  0  0  0  0
   -0.1917    2.1696    1.0289 N   0  0  0  0  0  0  0  0  0  0  0  0
   -0.6305    3.3943    1.1661 C   0  0  0  0  0  0  0  0  0  0  0  0
   -1.9933    3.6578    1.3663 C   0  0  0  0  0  0  0  0  0  0  0  0
   -2.9813    2.7515    0.9617 C   0  0  0  0  0  0  0  0  0  0  0  0
   -2.8083    1.4096    0.5887 C   0  0  0  0  0  0  0  0  0  0  0  0
   -2.1466    0.4041    1.2017 N   0  0  0  0  0  0  0  0  0  0  0  0
   -2.1938   -0.6288    0.3580 C   0  0  0  0  0  0  0  0  0  0  0  0
   -2.8964   -0.3163   -0.8048 C   0  0  0  0  0  0  0  0  0  0  0  0
   -3.2965    0.9904   -0.6686 C   0  0  0  0  0  0  0  0  0  0  0  0
   -4.1199    1.7291   -1.6871 C   0  0  0  0  0  0  0  0  0  0  0  0
   -5.5699    1.7889   -1.3532 C   0  0  0  0  0  0  0  0  0  0  0  0
   -6.2571    2.5589   -2.4620 C   0  0  0  0  0  0  0  0  0  0  0  0
    0.5631    4.2335    1.0553 C   0  0  0  0  0  0  0  0  0  0  0  0
    0.5825    5.7352    1.1516 C   0  0  0  0  0  0  0  0  0  0  0  0
    1.9399    6.3265    1.0472 C   0  0  0  0  0  0  0  0  0  0  0  0
    2.9151    5.9163    2.1009 C   0  0  0  0  0  0  0  0  0  0  0  0
    1.5981    3.4344    0.8622 C   0  0  0  0  0  0  0  0  0  0  0  0
   -0.5831   -8.3780    2.2127 H   0  0  0  0  0  0  0  0  0  0  0  0
   -0.3732   -8.1599    0.4217 H   0  0  0  0  0  0  0  0  0  0  0  0
   -1.9968   -8.0895    1.1516 H   0  0  0  0  0  0  0  0  0  0  0  0
   -1.6365   -6.0982    2.2895 H   0  0  0  0  0  0  0  0  0  0  0  0
    0.1342   -6.1207    1.9408 H   0  0  0  0  0  0  0  0  0  0  0  0
   -1.9840   -5.8751   -0.2826 H   0  0  0  0  0  0  0  0  0  0  0  0
   -0.2313   -5.8543   -0.4427 H   0  0  0  0  0  0  0  0  0  0  0  0
   -3.0377   -3.5819   -0.0376 H   0  0  0  0  0  0  0  0  0  0  0  0
    1.7493   -4.5592    1.3575 H   0  0  0  0  0  0  0  0  0  0  0  0
    3.5475   -3.0489    0.8428 H   0  0  0  0  0  0  0  0  0  0  0  0
    1.1094   -0.5094    2.3001 H   0  0  0  0  0  0  0  0  0  0  0  0
    2.8901    1.3792   -1.2415 H   0  0  0  0  0  0  0  0  0  0  0  0
    3.4614   -2.3039   -1.6943 H   0  0  0  0  0  0  0  0  0  0  0  0
    3.7629   -0.6936   -2.4347 H   0  0  0  0  0  0  0  0  0  0  0  0
    5.4226   -2.0640   -0.2044 H   0  0  0  0  0  0  0  0  0  0  0  0
    5.7258   -0.4206   -0.7844 H   0  0  0  0  0  0  0  0  0  0  0  0
    6.0456   -3.1162   -2.2198 H   0  0  0  0  0  0  0  0  0  0  0  0
    5.6537   -1.5643   -3.1618 H   0  0  0  0  0  0  0  0  0  0  0  0
    7.1076   -1.6119   -2.1383 H   0  0  0  0  0  0  0  0  0  0  0  0
   -2.2872    4.5637    1.8336 H   0  0  0  0  0  0  0  0  0  0  0  0
   -4.0127    3.1703    0.9076 H   0  0  0  0  0  0  0  0  0  0  0  0
   -1.7140    0.4337    2.2319 H   0  0  0  0  0  0  0  0  0  0  0  0
   -3.1340   -0.9423   -1.6883 H   0  0  0  0  0  0  0  0  0  0  0  0
   -4.0027    1.1836   -2.6440 H   0  0  0  0  0  0  0  0  0  0  0  0
   -3.6701    2.7324   -1.8679 H   0  0  0  0  0  0  0  0  0  0  0  0
   -5.9645    0.7384   -1.4371 H   0  0  0  0  0  0  0  0  0  0  0  0
   -5.7386    2.2227   -0.3733 H   0  0  0  0  0  0  0  0  0  0  0  0
   -7.2056    2.9832   -2.0664 H   0  0  0  0  0  0  0  0  0  0  0  0
   -5.6164    3.3367   -2.8970 H   0  0  0  0  0  0  0  0  0  0  0  0
   -6.5469    1.8892   -3.3068 H   0  0  0  0  0  0  0  0  0  0  0  0
   -0.0695    6.1958    0.3984 H   0  0  0  0  0  0  0  0  0  0  0  0
    0.1893    5.9682    2.1835 H   0  0  0  0  0  0  0  0  0  0  0  0
    1.8137    7.4360    1.0289 H   0  0  0  0  0  0  0  0  0  0  0  0
    2.3591    6.0860    0.0308 H   0  0  0  0  0  0  0  0  0  0  0  0
    3.2312    6.7881    2.7437 H   0  0  0  0  0  0  0  0  0  0  0  0
    3.8680    5.5881    1.6211 H   0  0  0  0  0  0  0  0  0  0  0  0
    2.5815    5.0666    2.7405 H   0  0  0  0  0  0  0  0  0  0  0  0
    2.6189    3.7671    0.7379 H   0  0  0  0  0  0  0  0  0  0  0  0
  1  2  1  0
  2  3  1  0
  3  4  1  0
  4  5  2  0
  5  6  1  0
  6  7  2  0
  7  8  1  0
  8  9  2  0
  9 10  1  0
 10 11  2  0
 11 12  1  0
 12 13  1  0
 13 14  1  0
 14 15  2  0
 15 16  1  0
 16 17  1  0
 17 18  1  0
 13 19  2  0
 19 20  1  0
 20 21  2  0
 21 22  1  0
 22 23  2  0
 23 24  1  0
 24 25  1  0
 25 26  1  0
 26 27  2  0
 27 28  1  0
 28 29  1  0
 29 30  1  0
 30 31  1  0
 21 32  1  0
 32 33  1  0
 33 34  1  0
 34 35  1  0
 32 36  2  0
  8  4  1  0
 15 11  1  0
 36 19  1  0
 26  6  1  0
 28 24  2  0
  1 37  1  0
  1 38  1  0
  1 39  1  0
  2 40  1  0
  2 41  1  0
  3 42  1  0
  3 43  1  0
  5 44  1  0
  9 45  1  0
 10 46  1  0
 12 47  1  0
 14 48  1  0
 16 49  1  0
 16 50  1  0
 17 51  1  0
 17 52  1  0
 18 53  1  0
 18 54  1  0
 18 55  1  0
 22 56  1  0
 23 57  1  0
 25 58  1  0
 27 59  1  0
 29 60  1  0
 29 61  1  0
 30 62  1  0
 30 63  1  0
 31 64  1  0
 31 65  1  0
 31 66  1  0
 33 67  1  0
 33 68  1  0
 34 69  1  0
 34 70  1  0
 35 71  1  0
 35 72  1  0
 35 73  1  0
 36 74  1  0
M  END
