
     RDKit          3D

 51 57  0  0  0  0  0  0  0  0999 V2000
    3.5526    0.1304   -0.0413 C   0  0  0  0  0  0  0  0  0  0  0  0
    4.3695   -0.7729    0.4151 C   0  0  0  0  0  0  0  0  0  0  0  0
    5.8348   -0.5718    0.3225 C   0  0  0  0  0  0  0  0  0  0  0  0
    6.5013    0.4444   -0.1822 N   0  0  0  0  0  0  0  0  0  0  0  0
    7.8026    0.4429   -0.1743 C   0  0  0  0  0  0  0  0  0  0  0  0
    8.6393    1.4539   -0.6754 C   0  0  0  0  0  0  0  0  0  0  0  0
    9.9798    1.3416   -0.6118 C   0  0  0  0  0  0  0  0  0  0  0  0
   10.6420    0.2652   -0.0697 C   0  0  0  0  0  0  0  0  0  0  0  0
    9.8276   -0.7420    0.4297 C   0  0  0  0  0  0  0  0  0  0  0  0
    8.4318   -0.6425    0.3722 C   0  0  0  0  0  0  0  0  0  0  0  0
    7.1001   -1.6062    0.8470 S   0  0  0  0  0  0  0  0  0  0  0  0
    2.1037    0.0333   -0.0007 C   0  0  0  0  0  0  0  0  0  0  0  0
    1.3684    1.0736   -0.5250 C   0  0  0  0  0  0  0  0  0  0  0  0
   -0.0061    1.0281   -0.5098 C   0  0  0  0  0  0  0  0  0  0  0  0
   -0.6918   -0.0434    0.0223 C   0  0  0  0  0  0  0  0  0  0  0  0
   -2.1511   -0.0744    0.0298 C   0  0  0  0  0  0  0  0  0  0  0  0
   -2.9490    0.8958   -0.4599 N   0  0  0  0  0  0  0  0  0  0  0  0
   -4.2464    0.5632   -0.3007 C   0  0  0  0  0  0  0  0  0  0  0  0
   -5.4347    1.2201   -0.6358 C   0  0  0  0  0  0  0  0  0  0  0  0
   -5.4080    2.4490   -1.2503 C   0  0  0  0  0  0  0  0  0  0  0  0
   -6.6103    3.0656   -1.5653 C   0  0  0  0  0  0  0  0  0  0  0  0
   -7.8095    2.4541   -1.2661 C   0  0  0  0  0  0  0  0  0  0  0  0
   -7.7597    1.2476   -0.6625 N   0  0  0  0  0  0  0  0  0  0  0  0
   -6.6307    0.6180   -0.3413 C   0  0  0  0  0  0  0  0  0  0  0  0
   -6.6092   -0.6178    0.2769 C   0  0  0  0  0  0  0  0  0  0  0  0
   -7.7808   -1.1921    0.5577 N   0  0  0  0  0  0  0  0  0  0  0  0
   -7.8244   -2.3882    1.1556 C   0  0  0  0  0  0  0  0  0  0  0  0
   -6.6748   -3.0713    1.5037 C   0  0  0  0  0  0  0  0  0  0  0  0
   -5.4503   -2.4944    1.2219 C   0  0  0  0  0  0  0  0  0  0  0  0
   -5.4537   -1.2678    0.6084 C   0  0  0  0  0  0  0  0  0  0  0  0
   -4.2399   -0.6692    0.3157 C   0  0  0  0  0  0  0  0  0  0  0  0
   -2.9478   -1.0448    0.5107 N   0  0  0  0  0  0  0  0  0  0  0  0
    0.0660   -1.0624    0.5361 C   0  0  0  0  0  0  0  0  0  0  0  0
    1.4386   -1.0298    0.5274 C   0  0  0  0  0  0  0  0  0  0  0  0
    4.0187    1.0245   -0.4860 H   0  0  0  0  0  0  0  0  0  0  0  0
    3.9846   -1.6712    0.8623 H   0  0  0  0  0  0  0  0  0  0  0  0
    8.2290    2.3562   -1.1291 H   0  0  0  0  0  0  0  0  0  0  0  0
   10.6225    2.1450   -1.0102 H   0  0  0  0  0  0  0  0  0  0  0  0
   11.7003    0.1685   -0.0155 H   0  0  0  0  0  0  0  0  0  0  0  0
   10.2445   -1.6270    0.8747 H   0  0  0  0  0  0  0  0  0  0  0  0
    1.8246    1.9559   -0.9638 H   0  0  0  0  0  0  0  0  0  0  0  0
   -0.5771    1.8491   -0.9236 H   0  0  0  0  0  0  0  0  0  0  0  0
   -4.4893    2.9350   -1.4883 H   0  0  0  0  0  0  0  0  0  0  0  0
   -6.6396    4.0258   -2.0458 H   0  0  0  0  0  0  0  0  0  0  0  0
   -8.7560    2.9281   -1.5084 H   0  0  0  0  0  0  0  0  0  0  0  0
   -8.8109   -2.8003    1.3563 H   0  0  0  0  0  0  0  0  0  0  0  0
   -6.7227   -4.0353    1.9855 H   0  0  0  0  0  0  0  0  0  0  0  0
   -4.5094   -2.9724    1.4662 H   0  0  0  0  0  0  0  0  0  0  0  0
   -2.6451   -1.9230    0.9516 H   0  0  0  0  0  0  0  0  0  0  0  0
   -0.4268   -1.9254    0.9651 H   0  0  0  0  0  0  0  0  0  0  0  0
    1.9733   -1.8691    0.9501 H   0  0  0  0  0  0  0  0  0  0  0  0
  1  2  2  0
  2  3  1  0
  3  4  2  0
  4  5  1  0
  5  6  2  0
  6  7  1  0
  7  8  2  0
  8  9  1  0
  9 10  2  0
 10 11  1  0
  1 12  1  0
 12 13  2  0
 13 14  1  0
 14 15  2  0
 15 16  1  0
 16 17  2  0
 17 18  1  0
 18 19  2  0
 19 20  1  0
 20 21  2  0
 21 22  1  0
 22 23  2  0
 23 24  1  0
 24 25  2  0
 25 26  1  0
 26 27  2  0
 27 28  1  0
 28 29  2  0
 29 30  1  0
 30 31  2  0
 31 32  1  0
 15 33  1  0
 33 34  2  0
 11  3  1  0
 34 12  1  0
 10  5  1  0
 32 16  1  0
 31 18  1  0
 24 19  1  0
 30 25  1  0
  1 35  1  0
  2 36  1  0
  6 37  1  0
  7 38  1  0
  8 39  1  0
  9 40  1  0
 13 41  1  0
 14 42  1  0
 20 43  1  0
 21 44  1  0
 22 45  1  0
 27 46  1  0
 28 47  1  0
 29 48  1  0
 32 49  1  0
 33 50  1  0
 34 51  1  0
M  END
