
     RDKit          3D

 61 67  0  0  0  0  0  0  0  0999 V2000
   -0.0372   -2.2612    1.5239 F   0  0  0  0  0  0  0  0  0  0  0  0
   -0.2084   -1.6233    0.2381 B   0  0  0  0  0  4  0  0  0  0  0  0
   -0.4659   -2.5438   -0.8321 F   0  0  0  0  0  0  0  0  0  0  0  0
    1.1858   -1.0341   -0.0781 N   0  0  0  0  0  0  0  0  0  0  0  0
    2.3849   -1.6585   -0.1795 C   0  0  0  0  0  0  0  0  0  0  0  0
    2.8278   -3.0158   -0.0001 C   0  0  0  0  0  0  0  0  0  0  0  0
    4.2103   -3.2770   -0.0703 C   0  0  0  0  0  0  0  0  0  0  0  0
    4.6962   -4.5447    0.0766 C   0  0  0  0  0  0  0  0  0  0  0  0
    3.8888   -5.6382    0.2995 C   0  0  0  0  0  0  0  0  0  0  0  0
    2.5463   -5.3997    0.3697 C   0  0  0  0  0  0  0  0  0  0  0  0
    2.0321   -4.0917    0.2190 C   0  0  0  0  0  0  0  0  0  0  0  0
    3.3156   -0.6491   -0.5109 C   0  0  0  0  0  0  0  0  0  0  0  0
    2.6504    0.5457   -0.5975 C   0  0  0  0  0  0  0  0  0  0  0  0
    3.1904    1.8598   -0.9229 C   0  0  0  0  0  0  0  0  0  0  0  0
    2.6770    2.7299   -1.8288 C   0  0  0  0  0  0  0  0  0  0  0  0
    3.2896    3.9491   -2.0327 C   0  0  0  0  0  0  0  0  0  0  0  0
    4.4186    4.3001   -1.3296 C   0  0  0  0  0  0  0  0  0  0  0  0
    4.9547    3.4383   -0.4106 C   0  0  0  0  0  0  0  0  0  0  0  0
    4.3394    2.2327   -0.2165 C   0  0  0  0  0  0  0  0  0  0  0  0
    1.3395    0.2581   -0.3212 C   0  0  0  0  0  0  0  0  0  0  0  0
    0.2036    1.1982   -0.2352 C   0  0  0  0  0  0  0  0  0  0  0  0
   -1.0138    0.8512    0.0820 C   0  0  0  0  0  0  0  0  0  0  0  0
   -2.2242    1.6165    0.2145 C   0  0  0  0  0  0  0  0  0  0  0  0
   -2.5237    3.0348    0.0501 C   0  0  0  0  0  0  0  0  0  0  0  0
   -1.5941    4.0271    0.0594 C   0  0  0  0  0  0  0  0  0  0  0  0
   -1.9898    5.3428   -0.1806 C   0  0  0  0  0  0  0  0  0  0  0  0
   -3.2938    5.6863   -0.4275 C   0  0  0  0  0  0  0  0  0  0  0  0
   -4.2371    4.6890   -0.4364 C   0  0  0  0  0  0  0  0  0  0  0  0
   -3.8567    3.4197   -0.2061 C   0  0  0  0  0  0  0  0  0  0  0  0
   -3.1444    0.7123    0.4944 C   0  0  0  0  0  0  0  0  0  0  0  0
   -2.5447   -0.6537    0.5503 C   0  0  0  0  0  0  0  0  0  0  0  0
   -3.4220   -1.7992    0.8517 C   0  0  0  0  0  0  0  0  0  0  0  0
   -4.7963   -1.5833    1.0808 C   0  0  0  0  0  0  0  0  0  0  0  0
   -5.6779   -2.5985    1.3671 C   0  0  0  0  0  0  0  0  0  0  0  0
   -5.1808   -3.8780    1.4294 C   0  0  0  0  0  0  0  0  0  0  0  0
   -3.8446   -4.1132    1.2097 C   0  0  0  0  0  0  0  0  0  0  0  0
   -2.9448   -3.0709    0.9167 C   0  0  0  0  0  0  0  0  0  0  0  0
   -1.2945   -0.5516    0.3070 N   0  0  0  0  0  4  0  0  0  0  0  0
    4.9270   -2.4965   -0.2368 H   0  0  0  0  0  0  0  0  0  0  0  0
    5.7666   -4.7363    0.0211 H   0  0  0  0  0  0  0  0  0  0  0  0
    4.2947   -6.6390    0.4138 H   0  0  0  0  0  0  0  0  0  0  0  0
    1.8602   -6.2021    0.5406 H   0  0  0  0  0  0  0  0  0  0  0  0
    0.9830   -4.0203    0.2821 H   0  0  0  0  0  0  0  0  0  0  0  0
    4.3730   -0.7076   -0.6867 H   0  0  0  0  0  0  0  0  0  0  0  0
    1.7971    2.4448   -2.3768 H   0  0  0  0  0  0  0  0  0  0  0  0
    2.8967    4.6453   -2.7429 H   0  0  0  0  0  0  0  0  0  0  0  0
    4.8816    5.2407   -1.4945 H   0  0  0  0  0  0  0  0  0  0  0  0
    5.8516    3.7131    0.1501 H   0  0  0  0  0  0  0  0  0  0  0  0
    4.7784    1.5552    0.5200 H   0  0  0  0  0  0  0  0  0  0  0  0
    0.3997    2.2094   -0.4738 H   0  0  0  0  0  0  0  0  0  0  0  0
   -0.5354    3.8469    0.2890 H   0  0  0  0  0  0  0  0  0  0  0  0
   -1.2217    6.1023   -0.1663 H   0  0  0  0  0  0  0  0  0  0  0  0
   -3.6089    6.7175   -0.6162 H   0  0  0  0  0  0  0  0  0  0  0  0
   -5.2888    4.9037   -0.6262 H   0  0  0  0  0  0  0  0  0  0  0  0
   -4.6402    2.6438   -0.2279 H   0  0  0  0  0  0  0  0  0  0  0  0
   -4.1738    0.9868    0.6599 H   0  0  0  0  0  0  0  0  0  0  0  0
   -5.1880   -0.5731    1.0314 H   0  0  0  0  0  0  0  0  0  0  0  0
   -6.7160   -2.3511    1.5300 H   0  0  0  0  0  0  0  0  0  0  0  0
   -5.8884   -4.6661    1.6559 H   0  0  0  0  0  0  0  0  0  0  0  0
   -3.4582   -5.1306    1.2608 H   0  0  0  0  0  0  0  0  0  0  0  0
   -1.9465   -3.3933    0.7700 H   0  0  0  0  0  0  0  0  0  0  0  0
  1  2  1  0
  2  3  1  0
  2  4  1  0
  4  5  1  0
  5  6  1  0
  6  7  2  0
  7  8  1  0
  8  9  2  0
  9 10  1  0
 10 11  2  0
  5 12  2  0
 12 13  1  0
 13 14  1  0
 14 15  2  0
 15 16  1  0
 16 17  2  0
 17 18  1  0
 18 19  2  0
 13 20  2  0
 20 21  1  0
 21 22  2  0
 22 23  1  0
 23 24  1  0
 24 25  2  0
 25 26  1  0
 26 27  2  0
 27 28  1  0
 28 29  2  0
 23 30  2  0
 30 31  1  0
 31 32  1  0
 32 33  2  0
 33 34  1  0
 34 35  2  0
 35 36  1  0
 36 37  2  0
 31 38  2  0
 38  2  1  0
 20  4  1  0
 38 22  1  0
 11  6  1  0
 19 14  1  0
 29 24  1  0
 37 32  1  0
  7 39  1  0
  8 40  1  0
  9 41  1  0
 10 42  1  0
 11 43  1  0
 12 44  1  0
 15 45  1  0
 16 46  1  0
 17 47  1  0
 18 48  1  0
 19 49  1  0
 21 50  1  0
 25 51  1  0
 26 52  1  0
 27 53  1  0
 28 54  1  0
 29 55  1  0
 30 56  1  0
 33 57  1  0
 34 58  1  0
 35 59  1  0
 36 60  1  0
 37 61  1  0
M  CHG  2   2  -1  38   1
M  END
