
     RDKit          3D

 27 28  0  0  0  0  0  0  0  0999 V2000
    0.0482    1.7767    2.9343 N   0  0  0  0  0  0  0  0  0  0  0  0
   -0.4600    1.2180    2.0635 C   0  0  0  0  0  0  0  0  0  0  0  0
   -1.1048    0.5424    0.9747 C   0  0  0  0  0  0  0  0  0  0  0  0
   -2.4721    0.3795    0.8839 C   0  0  0  0  0  0  0  0  0  0  0  0
   -3.2346    0.9382    1.9499 N   0  0  0  0  0  0  0  0  0  0  0  0
   -3.0504   -0.2596   -0.1481 N   0  0  0  0  0  0  0  0  0  0  0  0
   -2.3596   -0.7888   -1.1686 C   0  0  0  0  0  0  0  0  0  0  0  0
   -2.9784   -1.4785   -2.2371 N   0  0  0  0  0  0  0  0  0  0  0  0
   -0.9618   -0.6395   -1.1110 C   0  0  0  0  0  0  0  0  0  0  0  0
   -0.2069   -1.1565   -2.1879 C   0  0  0  0  0  0  0  0  0  0  0  0
    0.4149   -1.5840   -3.1082 N   0  0  0  0  0  0  0  0  0  0  0  0
   -0.3580    0.0101   -0.0612 C   0  0  0  0  0  0  0  0  0  0  0  0
    1.1121    0.1372    0.0371 C   0  0  0  0  0  0  0  0  0  0  0  0
    1.7665    1.3113   -0.1121 C   0  0  0  0  0  0  0  0  0  0  0  0
    3.1387    1.4122   -0.0153 C   0  0  0  0  0  0  0  0  0  0  0  0
    3.8674    0.2776    0.2413 C   0  0  0  0  0  0  0  0  0  0  0  0
    5.2357    0.2822    0.3490 F   0  0  0  0  0  0  0  0  0  0  0  0
    3.2151   -0.9193    0.3940 C   0  0  0  0  0  0  0  0  0  0  0  0
    1.8346   -1.0188    0.2964 C   0  0  0  0  0  0  0  0  0  0  0  0
   -3.3732    0.3942    2.8191 H   0  0  0  0  0  0  0  0  0  0  0  0
   -3.6547    1.8871    1.8679 H   0  0  0  0  0  0  0  0  0  0  0  0
   -2.6183   -1.3703   -3.1879 H   0  0  0  0  0  0  0  0  0  0  0  0
   -3.7894   -2.0848   -2.0532 H   0  0  0  0  0  0  0  0  0  0  0  0
    1.2066    2.2023   -0.3101 H   0  0  0  0  0  0  0  0  0  0  0  0
    3.6629    2.3623   -0.1310 H   0  0  0  0  0  0  0  0  0  0  0  0
    3.7608   -1.8459    0.5991 H   0  0  0  0  0  0  0  0  0  0  0  0
    1.3588   -1.9855    0.4216 H   0  0  0  0  0  0  0  0  0  0  0  0
  1  2  3  0
  2  3  1  0
  3  4  2  0
  4  5  1  0
  4  6  1  0
  6  7  2  0
  7  8  1  0
  7  9  1  0
  9 10  1  0
 10 11  3  0
  9 12  2  0
 12 13  1  0
 13 14  2  0
 14 15  1  0
 15 16  2  0
 16 17  1  0
 16 18  1  0
 18 19  2  0
 12  3  1  0
 19 13  1  0
  5 20  1  0
  5 21  1  0
  8 22  1  0
  8 23  1  0
 14 24  1  0
 15 25  1  0
 18 26  1  0
 19 27  1  0
M  END
