
     RDKit          3D

 40 44  0  0  0  0  0  0  0  0999 V2000
    5.8778    0.3567    1.5892 C   0  0  0  0  0  0  0  0  0  0  0  0
    4.7420    0.1098    0.6630 C   0  0  0  0  0  0  0  0  0  0  0  0
    4.0789   -1.0987    0.6465 C   0  0  0  0  0  0  0  0  0  0  0  0
    3.0116   -1.3333   -0.2225 C   0  0  0  0  0  0  0  0  0  0  0  0
    2.5770   -0.3673   -1.0992 C   0  0  0  0  0  0  0  0  0  0  0  0
    1.2193   -0.5970   -2.2363 S   0  0  0  0  0  0  0  0  0  0  0  0
   -0.2773   -0.0708   -1.3972 C   0  0  0  0  0  0  0  0  0  0  0  0
   -0.6832    1.2411   -1.4591 C   0  0  0  0  0  0  0  0  0  0  0  0
   -1.8476    1.5717   -0.7873 C   0  0  0  0  0  0  0  0  0  0  0  0
   -2.2754    2.8868   -0.8360 C   0  0  0  0  0  0  0  0  0  0  0  0
   -3.4303    3.2539   -0.1796 C   0  0  0  0  0  0  0  0  0  0  0  0
   -4.1554    2.3173    0.5212 C   0  0  0  0  0  0  0  0  0  0  0  0
   -3.7452    0.9925    0.5836 C   0  0  0  0  0  0  0  0  0  0  0  0
   -4.4936    0.0584    1.2982 C   0  0  0  0  0  0  0  0  0  0  0  0
   -4.0851   -1.2533    1.3579 C   0  0  0  0  0  0  0  0  0  0  0  0
   -2.9130   -1.5761    0.6797 C   0  0  0  0  0  0  0  0  0  0  0  0
   -2.4516   -2.8887    0.7037 C   0  0  0  0  0  0  0  0  0  0  0  0
   -1.2985   -3.2546    0.0470 C   0  0  0  0  0  0  0  0  0  0  0  0
   -0.5647   -2.3369   -0.6535 C   0  0  0  0  0  0  0  0  0  0  0  0
   -1.0035   -1.0182   -0.6932 C   0  0  0  0  0  0  0  0  0  0  0  0
   -2.1666   -0.6612   -0.0288 C   0  0  0  0  0  0  0  0  0  0  0  0
   -2.5881    0.6563   -0.0817 C   0  0  0  0  0  0  0  0  0  0  0  0
    3.2464    0.8567   -1.0847 C   0  0  0  0  0  0  0  0  0  0  0  0
    4.2969    1.0693   -0.2203 C   0  0  0  0  0  0  0  0  0  0  0  0
    5.5529    1.0252    2.4114 H   0  0  0  0  0  0  0  0  0  0  0  0
    6.3302   -0.5856    1.9311 H   0  0  0  0  0  0  0  0  0  0  0  0
    6.7069    0.9105    1.0569 H   0  0  0  0  0  0  0  0  0  0  0  0
    4.3967   -1.8873    1.3282 H   0  0  0  0  0  0  0  0  0  0  0  0
    2.5024   -2.2999   -0.2176 H   0  0  0  0  0  0  0  0  0  0  0  0
   -0.0972    1.9603   -2.0162 H   0  0  0  0  0  0  0  0  0  0  0  0
   -1.6713    3.5828   -1.3990 H   0  0  0  0  0  0  0  0  0  0  0  0
   -3.7707    4.2772   -0.2126 H   0  0  0  0  0  0  0  0  0  0  0  0
   -5.0775    2.5601    1.0576 H   0  0  0  0  0  0  0  0  0  0  0  0
   -5.3853    0.3837    1.7946 H   0  0  0  0  0  0  0  0  0  0  0  0
   -4.6306   -2.0158    1.8988 H   0  0  0  0  0  0  0  0  0  0  0  0
   -3.0492   -3.6005    1.2656 H   0  0  0  0  0  0  0  0  0  0  0  0
   -0.9453   -4.2943    0.0737 H   0  0  0  0  0  0  0  0  0  0  0  0
    0.3445   -2.5763   -1.1869 H   0  0  0  0  0  0  0  0  0  0  0  0
    2.9086    1.6198   -1.7722 H   0  0  0  0  0  0  0  0  0  0  0  0
    4.8142    2.0257   -0.2141 H   0  0  0  0  0  0  0  0  0  0  0  0
  1  2  1  0
  2  3  2  0
  3  4  1  0
  4  5  2  0
  5  6  1  0
  6  7  1  0
  7  8  2  0
  8  9  1  0
  9 10  2  0
 10 11  1  0
 11 12  2  0
 12 13  1  0
 13 14  2  0
 14 15  1  0
 15 16  2  0
 16 17  1  0
 17 18  2  0
 18 19  1  0
 19 20  2  0
 20 21  1  0
 21 22  2  0
  5 23  1  0
 23 24  2  0
 24  2  1  0
 20  7  1  0
 22  9  1  0
 22 13  1  0
 21 16  1  0
  1 25  1  0
  1 26  1  0
  1 27  1  0
  3 28  1  0
  4 29  1  0
  8 30  1  0
 10 31  1  0
 11 32  1  0
 12 33  1  0
 14 34  1  0
 15 35  1  0
 17 36  1  0
 18 37  1  0
 19 38  1  0
 23 39  1  0
 24 40  1  0
M  END
