
     RDKit          3D

 56 57  0  0  0  0  0  0  0  0999 V2000
    5.0104    2.0582    0.9976 C   0  0  0  0  0  0  0  0  0  0  0  0
    6.3542    1.5697    1.5005 C   0  0  0  0  0  0  0  0  0  0  0  0
    6.2124    0.2070    2.1214 C   0  0  0  0  0  0  0  0  0  0  0  0
    5.6875   -0.8070    1.1246 C   0  0  0  0  0  0  0  0  0  0  0  0
    6.5928   -0.9570   -0.0579 C   0  0  0  0  0  0  0  0  0  0  0  0
    6.0122   -1.9816   -0.9928 C   0  0  0  0  0  0  0  0  0  0  0  0
    4.6672   -1.5065   -1.4324 C   0  0  0  0  0  0  0  0  0  0  0  0
    4.3767   -0.7158   -2.5114 C   0  0  0  0  0  0  0  0  0  0  0  0
    3.0965   -0.4119   -2.7354 C   0  0  0  0  0  0  0  0  0  0  0  0
    2.1685   -0.9170   -1.8646 C   0  0  0  0  0  0  0  0  0  0  0  0
    0.7074   -0.7371   -1.8824 C   0  0  0  0  0  0  0  0  0  0  0  0
   -0.0704   -1.2849   -0.9754 C   0  0  0  0  0  0  0  0  0  0  0  0
   -1.5262   -1.1075   -0.9907 C   0  0  0  0  0  0  0  0  0  0  0  0
   -2.4472   -1.6138   -0.1193 C   0  0  0  0  0  0  0  0  0  0  0  0
   -3.7314   -1.3176   -0.3318 C   0  0  0  0  0  0  0  0  0  0  0  0
   -4.0346   -0.5292   -1.4052 C   0  0  0  0  0  0  0  0  0  0  0  0
   -5.3825   -0.0432   -1.8765 C   0  0  0  0  0  0  0  0  0  0  0  0
   -5.6499    1.2813   -1.1943 C   0  0  0  0  0  0  0  0  0  0  0  0
   -5.6799    1.1858    0.2988 C   0  0  0  0  0  0  0  0  0  0  0  0
   -6.7628    0.2451    0.7894 C   0  0  0  0  0  0  0  0  0  0  0  0
   -6.6980    0.2247    2.2984 C   0  0  0  0  0  0  0  0  0  0  0  0
   -6.9350    1.6392    2.7834 C   0  0  0  0  0  0  0  0  0  0  0  0
   -2.5068   -0.2211   -2.0933 S   0  0  0  0  0  0  0  0  0  0  0  0
    3.1237   -1.8004   -0.7620 S   0  0  0  0  0  0  0  0  0  0  0  0
    5.1626    3.0767    0.5689 H   0  0  0  0  0  0  0  0  0  0  0  0
    4.2888    2.0971    1.8147 H   0  0  0  0  0  0  0  0  0  0  0  0
    4.7032    1.4182    0.1433 H   0  0  0  0  0  0  0  0  0  0  0  0
    7.0591    1.5530    0.6453 H   0  0  0  0  0  0  0  0  0  0  0  0
    6.6906    2.2846    2.2664 H   0  0  0  0  0  0  0  0  0  0  0  0
    7.1627   -0.1249    2.5527 H   0  0  0  0  0  0  0  0  0  0  0  0
    5.4642    0.2881    2.9426 H   0  0  0  0  0  0  0  0  0  0  0  0
    5.5944   -1.7870    1.6254 H   0  0  0  0  0  0  0  0  0  0  0  0
    4.6854   -0.5304    0.7492 H   0  0  0  0  0  0  0  0  0  0  0  0
    7.6187   -1.2783    0.2181 H   0  0  0  0  0  0  0  0  0  0  0  0
    6.6550    0.0025   -0.6455 H   0  0  0  0  0  0  0  0  0  0  0  0
    5.8769   -2.9393   -0.4441 H   0  0  0  0  0  0  0  0  0  0  0  0
    6.6547   -2.1651   -1.8797 H   0  0  0  0  0  0  0  0  0  0  0  0
    5.2069   -0.3571   -3.1577 H   0  0  0  0  0  0  0  0  0  0  0  0
    2.7494    0.2229   -3.5830 H   0  0  0  0  0  0  0  0  0  0  0  0
    0.2744   -0.1519   -2.6454 H   0  0  0  0  0  0  0  0  0  0  0  0
    0.3498   -1.8775   -0.1999 H   0  0  0  0  0  0  0  0  0  0  0  0
   -2.1016   -2.2487    0.7286 H   0  0  0  0  0  0  0  0  0  0  0  0
   -4.5648   -1.6768    0.3150 H   0  0  0  0  0  0  0  0  0  0  0  0
   -5.3136    0.1607   -2.9641 H   0  0  0  0  0  0  0  0  0  0  0  0
   -6.1365   -0.7985   -1.6574 H   0  0  0  0  0  0  0  0  0  0  0  0
   -4.8212    1.9827   -1.4585 H   0  0  0  0  0  0  0  0  0  0  0  0
   -6.5736    1.7604   -1.5784 H   0  0  0  0  0  0  0  0  0  0  0  0
   -4.6797    0.8946    0.6777 H   0  0  0  0  0  0  0  0  0  0  0  0
   -5.8809    2.2010    0.6932 H   0  0  0  0  0  0  0  0  0  0  0  0
   -7.7622    0.7066    0.5335 H   0  0  0  0  0  0  0  0  0  0  0  0
   -6.7602   -0.7318    0.3135 H   0  0  0  0  0  0  0  0  0  0  0  0
   -5.6806   -0.0583    2.6266 H   0  0  0  0  0  0  0  0  0  0  0  0
   -7.4792   -0.4368    2.7330 H   0  0  0  0  0  0  0  0  0  0  0  0
   -7.6124    1.6382    3.6656 H   0  0  0  0  0  0  0  0  0  0  0  0
   -7.4321    2.2739    2.0161 H   0  0  0  0  0  0  0  0  0  0  0  0
   -5.9829    2.1417    3.0378 H   0  0  0  0  0  0  0  0  0  0  0  0
  1  2  1  0
  2  3  1  0
  3  4  1  0
  4  5  1  0
  5  6  1  0
  6  7  1  0
  7  8  2  0
  8  9  1  0
  9 10  2  0
 10 11  1  0
 11 12  2  0
 12 13  1  0
 13 14  2  0
 14 15  1  0
 15 16  2  0
 16 17  1  0
 17 18  1  0
 18 19  1  0
 19 20  1  0
 20 21  1  0
 21 22  1  0
 16 23  1  0
 10 24  1  0
 24  7  1  0
 23 13  1  0
  1 25  1  0
  1 26  1  0
  1 27  1  0
  2 28  1  0
  2 29  1  0
  3 30  1  0
  3 31  1  0
  4 32  1  0
  4 33  1  0
  5 34  1  0
  5 35  1  0
  6 36  1  0
  6 37  1  0
  8 38  1  0
  9 39  1  0
 11 40  1  0
 12 41  1  0
 14 42  1  0
 15 43  1  0
 17 44  1  0
 17 45  1  0
 18 46  1  0
 18 47  1  0
 19 48  1  0
 19 49  1  0
 20 50  1  0
 20 51  1  0
 21 52  1  0
 21 53  1  0
 22 54  1  0
 22 55  1  0
 22 56  1  0
M  END
