
     RDKit          3D

 82 86  0  0  0  0  0  0  0  0999 V2000
   -6.5723    1.3840   -2.7142 C   0  0  0  0  0  0  0  0  0  0  0  0
   -6.0211    0.3746   -1.8991 O   0  0  0  0  0  0  0  0  0  0  0  0
   -6.4394    0.6603   -0.5835 C   0  0  0  0  0  0  0  0  0  0  0  0
   -5.9170   -0.3448    0.3951 C   0  0  0  0  0  0  0  0  0  0  0  0
   -4.4363   -0.4153    0.4407 C   0  0  0  0  0  0  0  0  0  0  0  0
   -3.7441   -1.5103    0.1547 C   0  0  0  0  0  0  0  0  0  0  0  0
   -2.3208   -1.2174    0.3035 C   0  0  0  0  0  0  0  0  0  0  0  0
   -2.2689    0.0708    0.6763 N   0  0  0  0  0  0  0  0  0  0  0  0
   -3.4591    0.6020    0.7800 C   0  0  0  0  0  0  0  0  0  0  0  0
   -3.6377    1.9230    1.2145 C   0  0  0  0  0  0  0  0  0  0  0  0
   -2.5651    2.7895    1.4307 C   0  0  0  0  0  0  0  0  0  0  0  0
   -1.2054    2.6243    1.1180 C   0  0  0  0  0  0  0  0  0  0  0  0
   -0.3430    1.6664    1.5023 N   0  0  0  0  0  0  0  0  0  0  0  0
    0.8070    1.8795    0.8682 C   0  0  0  0  0  0  0  0  0  0  0  0
    0.7149    3.0206    0.0508 C   0  0  0  0  0  0  0  0  0  0  0  0
   -0.5720    3.4880    0.2155 C   0  0  0  0  0  0  0  0  0  0  0  0
   -1.0412    4.7150   -0.5141 C   0  0  0  0  0  0  0  0  0  0  0  0
   -2.3842    5.1676   -0.1934 C   0  0  0  0  0  0  0  0  0  0  0  0
   -2.7591    6.2707   -0.9639 O   0  0  0  0  0  0  0  0  0  0  0  0
   -1.9397    7.3488   -0.7400 C   0  0  0  0  0  0  0  0  0  0  0  0
    1.9794    1.0652    0.8107 C   0  0  0  0  0  0  0  0  0  0  0  0
    1.9562   -0.2274    0.4943 N   0  0  0  0  0  0  0  0  0  0  0  0
    3.1274   -0.7709    0.3912 C   0  0  0  0  0  0  0  0  0  0  0  0
    3.2851   -2.1188    0.0050 C   0  0  0  0  0  0  0  0  0  0  0  0
    4.6125   -2.5119   -0.1253 O   0  0  0  0  0  0  0  0  0  0  0  0
    5.1259   -3.7326   -0.4803 C   0  0  0  0  0  0  0  0  0  0  0  0
    2.2087   -2.9782   -0.2261 C   0  0  0  0  0  0  0  0  0  0  0  0
    0.8441   -2.7972   -0.0067 C   0  0  0  0  0  0  0  0  0  0  0  0
    0.0120   -1.8022   -0.3824 N   0  0  0  0  0  0  0  0  0  0  0  0
   -1.1543   -2.0302    0.2179 C   0  0  0  0  0  0  0  0  0  0  0  0
   -1.1119   -3.2029    0.9923 C   0  0  0  0  0  0  0  0  0  0  0  0
    0.1638   -3.6924    0.8481 C   0  0  0  0  0  0  0  0  0  0  0  0
    0.6112   -4.9866    1.4712 C   0  0  0  0  0  0  0  0  0  0  0  0
    0.4614   -6.1743    0.5947 C   0  0  0  0  0  0  0  0  0  0  0  0
    1.1450   -6.1523   -0.5901 O   0  0  0  0  0  0  0  0  0  0  0  0
    0.9404   -7.2992   -1.3419 C   0  0  0  0  0  0  0  0  0  0  0  0
    4.0892    0.2833    0.6803 C   0  0  0  0  0  0  0  0  0  0  0  0
    5.5756    0.1901    0.7026 C   0  0  0  0  0  0  0  0  0  0  0  0
    6.2244    1.4902    1.0453 C   0  0  0  0  0  0  0  0  0  0  0  0
    5.9212    2.4930    0.1717 O   0  0  0  0  0  0  0  0  0  0  0  0
    6.3227    2.2099   -1.1252 C   0  0  0  0  0  0  0  0  0  0  0  0
    3.3994    1.3797    0.9302 C   0  0  0  0  0  0  0  0  0  0  0  0
   -6.2969    1.2454   -3.7744 H   0  0  0  0  0  0  0  0  0  0  0  0
   -7.6940    1.3976   -2.6335 H   0  0  0  0  0  0  0  0  0  0  0  0
   -6.1559    2.3858   -2.4096 H   0  0  0  0  0  0  0  0  0  0  0  0
   -6.2487    1.7076   -0.3171 H   0  0  0  0  0  0  0  0  0  0  0  0
   -7.5539    0.5489   -0.6122 H   0  0  0  0  0  0  0  0  0  0  0  0
   -6.3739   -1.3182    0.1563 H   0  0  0  0  0  0  0  0  0  0  0  0
   -6.3412   -0.0611    1.3964 H   0  0  0  0  0  0  0  0  0  0  0  0
   -4.1950   -2.4490   -0.1356 H   0  0  0  0  0  0  0  0  0  0  0  0
   -4.6628    2.2489    1.3870 H   0  0  0  0  0  0  0  0  0  0  0  0
   -2.9293    3.7402    1.9025 H   0  0  0  0  0  0  0  0  0  0  0  0
   -0.5465    0.8741    2.2858 H   0  0  0  0  0  0  0  0  0  0  0  0
    1.4874    3.4854   -0.5891 H   0  0  0  0  0  0  0  0  0  0  0  0
   -0.2594    5.5109   -0.3827 H   0  0  0  0  0  0  0  0  0  0  0  0
   -0.9672    4.4151   -1.6052 H   0  0  0  0  0  0  0  0  0  0  0  0
   -2.3473    5.6185    0.8552 H   0  0  0  0  0  0  0  0  0  0  0  0
   -3.1849    4.4106   -0.3002 H   0  0  0  0  0  0  0  0  0  0  0  0
   -0.8793    7.2143   -0.9954 H   0  0  0  0  0  0  0  0  0  0  0  0
   -2.2704    8.2529   -1.3325 H   0  0  0  0  0  0  0  0  0  0  0  0
   -1.9341    7.6582    0.3434 H   0  0  0  0  0  0  0  0  0  0  0  0
    4.5029   -4.4178   -1.0547 H   0  0  0  0  0  0  0  0  0  0  0  0
    6.1364   -3.5742   -0.9630 H   0  0  0  0  0  0  0  0  0  0  0  0
    5.3916   -4.2860    0.4709 H   0  0  0  0  0  0  0  0  0  0  0  0
    2.5770   -3.9540   -0.6213 H   0  0  0  0  0  0  0  0  0  0  0  0
    0.2472   -0.9962   -1.1260 H   0  0  0  0  0  0  0  0  0  0  0  0
   -1.9053   -3.6853    1.5939 H   0  0  0  0  0  0  0  0  0  0  0  0
    1.7075   -4.8206    1.6663 H   0  0  0  0  0  0  0  0  0  0  0  0
    0.0921   -5.1570    2.4166 H   0  0  0  0  0  0  0  0  0  0  0  0
    0.8253   -7.0619    1.2022 H   0  0  0  0  0  0  0  0  0  0  0  0
   -0.6289   -6.3790    0.4630 H   0  0  0  0  0  0  0  0  0  0  0  0
   -0.1447   -7.4313   -1.5922 H   0  0  0  0  0  0  0  0  0  0  0  0
    1.5456   -7.1929   -2.2730 H   0  0  0  0  0  0  0  0  0  0  0  0
    1.2515   -8.2274   -0.8177 H   0  0  0  0  0  0  0  0  0  0  0  0
    5.9029   -0.1773   -0.2846 H   0  0  0  0  0  0  0  0  0  0  0  0
    5.8397   -0.5459    1.4926 H   0  0  0  0  0  0  0  0  0  0  0  0
    6.0463    1.7606    2.1065 H   0  0  0  0  0  0  0  0  0  0  0  0
    7.3413    1.3391    0.9911 H   0  0  0  0  0  0  0  0  0  0  0  0
    6.0498    3.0954   -1.7766 H   0  0  0  0  0  0  0  0  0  0  0  0
    7.3943    1.9780   -1.2181 H   0  0  0  0  0  0  0  0  0  0  0  0
    5.7265    1.3519   -1.5623 H   0  0  0  0  0  0  0  0  0  0  0  0
    3.8192    2.3640    1.1828 H   0  0  0  0  0  0  0  0  0  0  0  0
  1  2  1  0
  2  3  1  0
  3  4  1  0
  4  5  1  0
  5  6  2  0
  6  7  1  0
  7  8  2  0
  8  9  1  0
  9 10  2  0
 10 11  1  0
 11 12  2  0
 12 13  1  0
 13 14  1  0
 14 15  1  0
 15 16  2  0
 16 17  1  0
 17 18  1  0
 18 19  1  0
 19 20  1  0
 14 21  2  0
 21 22  1  0
 22 23  2  0
 23 24  1  0
 24 25  1  0
 25 26  1  0
 24 27  2  0
 27 28  1  0
 28 29  1  0
 29 30  1  0
 30 31  2  0
 31 32  1  0
 32 33  1  0
 33 34  1  0
 34 35  1  0
 35 36  1  0
 23 37  1  0
 37 38  1  0
 38 39  1  0
 39 40  1  0
 40 41  1  0
 37 42  2  0
  9  5  1  0
 16 12  1  0
 42 21  1  0
 30  7  1  0
 32 28  2  0
  1 43  1  0
  1 44  1  0
  1 45  1  0
  3 46  1  0
  3 47  1  0
  4 48  1  0
  4 49  1  0
  6 50  1  0
 10 51  1  0
 11 52  1  0
 13 53  1  0
 15 54  1  0
 17 55  1  0
 17 56  1  0
 18 57  1  0
 18 58  1  0
 20 59  1  0
 20 60  1  0
 20 61  1  0
 26 62  1  0
 26 63  1  0
 26 64  1  0
 27 65  1  0
 29 66  1  0
 31 67  1  0
 33 68  1  0
 33 69  1  0
 34 70  1  0
 34 71  1  0
 36 72  1  0
 36 73  1  0
 36 74  1  0
 38 75  1  0
 38 76  1  0
 39 77  1  0
 39 78  1  0
 41 79  1  0
 41 80  1  0
 41 81  1  0
 42 82  1  0
M  END
