
     RDKit          3D

 96103  0  0  0  0  0  0  0  0999 V2000
    0.8493    4.8178    1.8173 C   0  0  0  0  0  0  0  0  0  0  0  0
   -0.2830    4.1836    1.6186 C   0  0  0  0  0  0  0  0  0  0  0  0
   -0.2373    2.8042    1.1088 C   0  0  0  0  0  0  0  0  0  0  0  0
   -1.4093    2.1318    0.9027 N   0  0  0  0  0  0  0  0  0  0  0  0
   -1.4101    0.8746    0.4365 C   0  0  0  0  0  0  0  0  0  0  0  0
   -2.6345    0.1298    0.2118 C   0  0  0  0  0  0  0  0  0  0  0  0
   -3.8346    0.5999    0.4656 C   0  0  0  0  0  0  0  0  0  0  0  0
   -5.0868   -0.1165    0.2527 C   0  0  0  0  0  0  0  0  0  0  0  0
   -6.2605    0.5087    0.6044 C   0  0  0  0  0  0  0  0  0  0  0  0
   -7.4806   -0.0974    0.4311 C   0  0  0  0  0  0  0  0  0  0  0  0
   -7.5777   -1.3764   -0.1108 C   0  0  0  0  0  0  0  0  0  0  0  0
   -8.8227   -2.0183   -0.2815 N   0  0  0  0  0  0  0  0  0  0  0  0
   -9.9207   -1.3156   -0.8118 C   0  0  0  0  0  0  0  0  0  0  0  0
  -11.1942   -1.3837   -0.2810 C   0  0  0  0  0  0  0  0  0  0  0  0
  -12.1818   -0.6442   -0.8906 C   0  0  0  0  0  0  0  0  0  0  0  0
  -11.9714    0.1520   -1.9902 C   0  0  0  0  0  0  0  0  0  0  0  0
  -10.6910    0.2004   -2.4982 C   0  0  0  0  0  0  0  0  0  0  0  0
   -9.6791   -0.5195   -1.9223 C   0  0  0  0  0  0  0  0  0  0  0  0
   -8.9635   -3.3778    0.0713 C   0  0  0  0  0  0  0  0  0  0  0  0
   -8.4414   -3.8527    1.2676 C   0  0  0  0  0  0  0  0  0  0  0  0
   -8.5866   -5.1935    1.5980 C   0  0  0  0  0  0  0  0  0  0  0  0
   -9.2509   -6.0034    0.7131 C   0  0  0  0  0  0  0  0  0  0  0  0
   -9.7771   -5.5473   -0.4820 C   0  0  0  0  0  0  0  0  0  0  0  0
   -9.6283   -4.2092   -0.8046 C   0  0  0  0  0  0  0  0  0  0  0  0
   -6.3756   -1.9693   -0.4508 C   0  0  0  0  0  0  0  0  0  0  0  0
   -5.1431   -1.3784   -0.2847 C   0  0  0  0  0  0  0  0  0  0  0  0
   -0.1934    0.2983    0.1782 C   0  0  0  0  0  0  0  0  0  0  0  0
    1.0087    0.9827    0.3879 C   0  0  0  0  0  0  0  0  0  0  0  0
    2.2638    0.2911    0.0962 C   0  0  0  0  0  0  0  0  0  0  0  0
    3.3962    0.9250    0.2687 C   0  0  0  0  0  0  0  0  0  0  0  0
    4.6954    0.3277    0.0084 C   0  0  0  0  0  0  0  0  0  0  0  0
    5.8677    1.0601    0.1878 C   0  0  0  0  0  0  0  0  0  0  0  0
    7.0739    0.4886   -0.0541 C   0  0  0  0  0  0  0  0  0  0  0  0
    7.2405   -0.8120   -0.4808 C   0  0  0  0  0  0  0  0  0  0  0  0
    8.5225   -1.3646   -0.7307 N   0  0  0  0  0  0  0  0  0  0  0  0
    8.8304   -2.6435   -0.2425 C   0  0  0  0  0  0  0  0  0  0  0  0
    8.5037   -3.0003    1.0506 C   0  0  0  0  0  0  0  0  0  0  0  0
    8.7914   -4.2537    1.5707 C   0  0  0  0  0  0  0  0  0  0  0  0
    9.4279   -5.1924    0.7801 C   0  0  0  0  0  0  0  0  0  0  0  0
    9.7605   -4.8461   -0.5184 C   0  0  0  0  0  0  0  0  0  0  0  0
    9.4679   -3.5936   -1.0237 C   0  0  0  0  0  0  0  0  0  0  0  0
    9.4755   -0.6062   -1.4861 C   0  0  0  0  0  0  0  0  0  0  0  0
    9.0589    0.0202   -2.6247 C   0  0  0  0  0  0  0  0  0  0  0  0
    9.9410    0.7566   -3.3862 C   0  0  0  0  0  0  0  0  0  0  0  0
   11.2805    0.8773   -3.0085 C   0  0  0  0  0  0  0  0  0  0  0  0
   11.6567    0.2295   -1.8545 C   0  0  0  0  0  0  0  0  0  0  0  0
   10.7869   -0.5078   -1.0860 C   0  0  0  0  0  0  0  0  0  0  0  0
    6.0727   -1.5305   -0.6558 C   0  0  0  0  0  0  0  0  0  0  0  0
    4.8204   -0.9705   -0.4155 C   0  0  0  0  0  0  0  0  0  0  0  0
    0.9479    2.2344    0.8541 N   0  0  0  0  0  0  0  0  0  0  0  0
    0.9380    6.1695    2.3123 C   0  0  0  0  0  0  0  0  0  0  0  0
   -0.1836    6.8929    2.6056 C   0  0  0  0  0  0  0  0  0  0  0  0
   -0.0482    8.1985    3.0827 C   0  0  0  0  0  0  0  0  0  0  0  0
    1.1897    8.7582    3.2588 C   0  0  0  0  0  0  0  0  0  0  0  0
    2.3304    8.0445    2.9686 C   0  0  0  0  0  0  0  0  0  0  0  0
    2.1829    6.7588    2.4990 C   0  0  0  0  0  0  0  0  0  0  0  0
    1.7966    4.2840    1.5918 H   0  0  0  0  0  0  0  0  0  0  0  0
   -1.2371    4.6601    1.8235 H   0  0  0  0  0  0  0  0  0  0  0  0
   -2.5588   -0.8714   -0.1879 H   0  0  0  0  0  0  0  0  0  0  0  0
   -3.8715    1.6042    0.8651 H   0  0  0  0  0  0  0  0  0  0  0  0
   -6.2674    1.5173    1.0367 H   0  0  0  0  0  0  0  0  0  0  0  0
   -8.3899    0.4486    0.7295 H   0  0  0  0  0  0  0  0  0  0  0  0
  -11.3503   -2.0148    0.5860 H   0  0  0  0  0  0  0  0  0  0  0  0
  -13.1958   -0.6796   -0.4933 H   0  0  0  0  0  0  0  0  0  0  0  0
  -12.7364    0.7330   -2.4724 H   0  0  0  0  0  0  0  0  0  0  0  0
  -10.5078    0.8236   -3.3647 H   0  0  0  0  0  0  0  0  0  0  0  0
   -8.6820   -0.4612   -2.3438 H   0  0  0  0  0  0  0  0  0  0  0  0
   -7.9217   -3.2238    1.9619 H   0  0  0  0  0  0  0  0  0  0  0  0
   -8.1847   -5.5955    2.5329 H   0  0  0  0  0  0  0  0  0  0  0  0
   -9.3739   -7.0513    0.9527 H   0  0  0  0  0  0  0  0  0  0  0  0
  -10.3011   -6.2000   -1.1738 H   0  0  0  0  0  0  0  0  0  0  0  0
  -10.0429   -3.8585   -1.7416 H   0  0  0  0  0  0  0  0  0  0  0  0
   -6.4441   -2.9679   -0.8747 H   0  0  0  0  0  0  0  0  0  0  0  0
   -4.2355   -1.8836   -0.5664 H   0  0  0  0  0  0  0  0  0  0  0  0
   -0.1628   -0.7183   -0.1995 H   0  0  0  0  0  0  0  0  0  0  0  0
    2.2339   -0.7244   -0.2550 H   0  0  0  0  0  0  0  0  0  0  0  0
    3.3771    1.9514    0.6249 H   0  0  0  0  0  0  0  0  0  0  0  0
    5.7713    2.1006    0.5279 H   0  0  0  0  0  0  0  0  0  0  0  0
    7.9724    1.0991    0.0997 H   0  0  0  0  0  0  0  0  0  0  0  0
    8.0015   -2.3070    1.7247 H   0  0  0  0  0  0  0  0  0  0  0  0
    8.5159   -4.5023    2.6068 H   0  0  0  0  0  0  0  0  0  0  0  0
    9.6504   -6.1743    1.1952 H   0  0  0  0  0  0  0  0  0  0  0  0
   10.2674   -5.5926   -1.1489 H   0  0  0  0  0  0  0  0  0  0  0  0
    9.7571   -3.3884   -2.0523 H   0  0  0  0  0  0  0  0  0  0  0  0
    8.0237   -0.0425   -2.9631 H   0  0  0  0  0  0  0  0  0  0  0  0
    9.6622    1.2723   -4.2981 H   0  0  0  0  0  0  0  0  0  0  0  0
   11.9869    1.4651   -3.6164 H   0  0  0  0  0  0  0  0  0  0  0  0
   12.6949    0.3121   -1.5455 H   0  0  0  0  0  0  0  0  0  0  0  0
   11.0915   -1.0135   -0.1802 H   0  0  0  0  0  0  0  0  0  0  0  0
    6.1206   -2.5459   -0.9847 H   0  0  0  0  0  0  0  0  0  0  0  0
    3.9706   -1.6073   -0.5798 H   0  0  0  0  0  0  0  0  0  0  0  0
   -1.1707    6.5087    2.4881 H   0  0  0  0  0  0  0  0  0  0  0  0
   -0.9674    8.7530    3.3089 H   0  0  0  0  0  0  0  0  0  0  0  0
    1.2128    9.7777    3.6332 H   0  0  0  0  0  0  0  0  0  0  0  0
    3.2941    8.5108    3.1169 H   0  0  0  0  0  0  0  0  0  0  0  0
    3.0865    6.2104    2.2757 H   0  0  0  0  0  0  0  0  0  0  0  0
  1  2  2  0
  2  3  1  0
  3  4  2  0
  4  5  1  0
  5  6  1  0
  6  7  2  0
  7  8  1  0
  8  9  2  0
  9 10  1  0
 10 11  2  0
 11 12  1  0
 12 13  1  0
 13 14  2  0
 14 15  1  0
 15 16  2  0
 16 17  1  0
 17 18  2  0
 12 19  1  0
 19 20  2  0
 20 21  1  0
 21 22  2  0
 22 23  1  0
 23 24  2  0
 11 25  1  0
 25 26  2  0
  5 27  2  0
 27 28  1  0
 28 29  1  0
 29 30  2  0
 30 31  1  0
 31 32  2  0
 32 33  1  0
 33 34  2  0
 34 35  1  0
 35 36  1  0
 36 37  2  0
 37 38  1  0
 38 39  2  0
 39 40  1  0
 40 41  2  0
 35 42  1  0
 42 43  2  0
 43 44  1  0
 44 45  2  0
 45 46  1  0
 46 47  2  0
 34 48  1  0
 48 49  2  0
 28 50  2  0
  1 51  1  0
 51 52  2  0
 52 53  1  0
 53 54  2  0
 54 55  1  0
 55 56  2  0
 50  3  1  0
 56 51  1  0
 26  8  1  0
 49 31  1  0
 18 13  1  0
 24 19  1  0
 41 36  1  0
 47 42  1  0
  1 57  1  0
  2 58  1  0
  6 59  1  0
  7 60  1  0
  9 61  1  0
 10 62  1  0
 14 63  1  0
 15 64  1  0
 16 65  1  0
 17 66  1  0
 18 67  1  0
 20 68  1  0
 21 69  1  0
 22 70  1  0
 23 71  1  0
 24 72  1  0
 25 73  1  0
 26 74  1  0
 27 75  1  0
 29 76  1  0
 30 77  1  0
 32 78  1  0
 33 79  1  0
 37 80  1  0
 38 81  1  0
 39 82  1  0
 40 83  1  0
 41 84  1  0
 43 85  1  0
 44 86  1  0
 45 87  1  0
 46 88  1  0
 47 89  1  0
 48 90  1  0
 49 91  1  0
 52 92  1  0
 53 93  1  0
 54 94  1  0
 55 95  1  0
 56 96  1  0
M  END
