
     RDKit          3D

 66 69  0  0  0  0  0  0  0  0999 V2000
   -4.9014    6.4093    0.0598 C   0  0  0  0  0  0  0  0  0  0  0  0
   -4.9403    5.5405    1.2892 C   0  0  0  0  0  0  0  0  0  0  0  0
   -4.2017    4.3295    1.0967 O   0  0  0  0  0  0  0  0  0  0  0  0
   -2.8783    4.2948    0.8068 C   0  0  0  0  0  0  0  0  0  0  0  0
   -2.2113    5.3292    0.6881 O   0  0  0  0  0  0  0  0  0  0  0  0
   -2.1654    2.9960    0.6173 C   0  0  0  0  0  0  0  0  0  0  0  0
   -2.8480    1.9114    0.7374 C   0  0  0  0  0  0  0  0  0  0  0  0
   -2.3940    0.5353    0.6020 C   0  0  0  0  0  0  0  0  0  0  0  0
   -1.2349    0.0193    0.3314 N   0  0  0  0  0  4  0  0  0  0  0  0
   -1.3062   -1.4172    0.3121 C   0  0  0  0  0  0  0  0  0  0  0  0
   -0.2788   -2.2124    0.0882 C   0  0  0  0  0  0  0  0  0  0  0  0
   -0.4604   -3.6452    0.0876 C   0  0  0  0  0  0  0  0  0  0  0  0
   -1.3534   -4.1576   -0.8406 C   0  0  0  0  0  0  0  0  0  0  0  0
   -2.0662   -3.3244   -1.8519 C   0  0  0  0  0  0  0  0  0  0  0  0
   -1.5581   -5.5216   -0.8170 C   0  0  0  0  0  0  0  0  0  0  0  0
   -0.9263   -6.3719    0.0686 C   0  0  0  0  0  0  0  0  0  0  0  0
   -1.1665   -7.8518    0.0717 C   0  0  0  0  0  0  0  0  0  0  0  0
   -0.0517   -5.7841    0.9609 C   0  0  0  0  0  0  0  0  0  0  0  0
    0.2098   -4.4289    1.0054 C   0  0  0  0  0  0  0  0  0  0  0  0
    1.1478   -3.8869    2.0188 C   0  0  0  0  0  0  0  0  0  0  0  0
    1.0470   -1.6622   -0.1842 C   0  0  0  0  0  0  0  0  0  0  0  0
    2.2790   -2.2645   -0.4647 C   0  0  0  0  0  0  0  0  0  0  0  0
    3.1826   -1.2612   -0.6506 C   0  0  0  0  0  0  0  0  0  0  0  0
    2.5252   -0.0670   -0.4894 C   0  0  0  0  0  0  0  0  0  0  0  0
    3.1164    1.2604   -0.6018 C   0  0  0  0  0  0  0  0  0  0  0  0
    4.4011    1.3562   -0.8839 C   0  0  0  0  0  0  0  0  0  0  0  0
    5.0290    2.6622   -1.0048 C   0  0  0  0  0  0  0  0  0  0  0  0
    6.2347    2.7906   -1.2694 O   0  0  0  0  0  0  0  0  0  0  0  0
    4.2621    3.8188   -0.8195 O   0  0  0  0  0  0  0  0  0  0  0  0
    4.8952    5.0767   -0.9425 C   0  0  0  0  0  0  0  0  0  0  0  0
    5.9998    5.1199    0.1076 C   0  0  0  0  0  0  0  0  0  0  0  0
    1.2199   -0.3572   -0.2053 N   0  0  0  0  0  0  0  0  0  0  0  0
    0.0979    0.6922    0.0456 B   0  0  0  0  0  4  0  0  0  0  0  0
    0.0098    1.5252   -1.1493 F   0  0  0  0  0  0  0  0  0  0  0  0
    0.6113    1.4884    1.1409 F   0  0  0  0  0  0  0  0  0  0  0  0
   -2.7149   -1.7040    0.6187 C   0  0  0  0  0  0  0  0  0  0  0  0
   -3.3607   -0.5937    0.7893 C   0  0  0  0  0  0  0  0  0  0  0  0
   -5.8778    6.9139   -0.0310 H   0  0  0  0  0  0  0  0  0  0  0  0
   -4.0707    7.1269    0.1289 H   0  0  0  0  0  0  0  0  0  0  0  0
   -4.7648    5.7308   -0.8212 H   0  0  0  0  0  0  0  0  0  0  0  0
   -4.5878    6.0725    2.1938 H   0  0  0  0  0  0  0  0  0  0  0  0
   -5.9954    5.2390    1.4740 H   0  0  0  0  0  0  0  0  0  0  0  0
   -1.1443    2.9827    0.3971 H   0  0  0  0  0  0  0  0  0  0  0  0
   -3.9442    2.0456    0.9796 H   0  0  0  0  0  0  0  0  0  0  0  0
   -1.8945   -3.8627   -2.8353 H   0  0  0  0  0  0  0  0  0  0  0  0
   -1.6331   -2.3408   -1.9919 H   0  0  0  0  0  0  0  0  0  0  0  0
   -3.1631   -3.3442   -1.7265 H   0  0  0  0  0  0  0  0  0  0  0  0
   -2.2539   -5.9290   -1.5377 H   0  0  0  0  0  0  0  0  0  0  0  0
   -1.6429   -8.1935   -0.8452 H   0  0  0  0  0  0  0  0  0  0  0  0
   -0.1856   -8.3266    0.2818 H   0  0  0  0  0  0  0  0  0  0  0  0
   -1.8621   -8.0467    0.9206 H   0  0  0  0  0  0  0  0  0  0  0  0
    0.4530   -6.4352    1.6628 H   0  0  0  0  0  0  0  0  0  0  0  0
    2.1703   -4.1811    1.6958 H   0  0  0  0  0  0  0  0  0  0  0  0
    1.1476   -2.8137    2.1147 H   0  0  0  0  0  0  0  0  0  0  0  0
    1.0376   -4.4251    3.0021 H   0  0  0  0  0  0  0  0  0  0  0  0
    2.4251   -3.3487   -0.5164 H   0  0  0  0  0  0  0  0  0  0  0  0
    4.2492   -1.3926   -0.8877 H   0  0  0  0  0  0  0  0  0  0  0  0
    2.5221    2.1575   -0.4587 H   0  0  0  0  0  0  0  0  0  0  0  0
    5.0308    0.4800   -1.0346 H   0  0  0  0  0  0  0  0  0  0  0  0
    5.3491    5.1056   -1.9657 H   0  0  0  0  0  0  0  0  0  0  0  0
    4.1808    5.8984   -0.8415 H   0  0  0  0  0  0  0  0  0  0  0  0
    6.0510    6.1827    0.4608 H   0  0  0  0  0  0  0  0  0  0  0  0
    6.9527    4.8346   -0.3878 H   0  0  0  0  0  0  0  0  0  0  0  0
    5.7712    4.4403    0.9433 H   0  0  0  0  0  0  0  0  0  0  0  0
   -3.1448   -2.7233    0.6986 H   0  0  0  0  0  0  0  0  0  0  0  0
   -4.4253   -0.4920    1.0283 H   0  0  0  0  0  0  0  0  0  0  0  0
  1  2  1  0
  2  3  1  0
  3  4  1  0
  4  5  2  0
  4  6  1  0
  6  7  2  0
  7  8  1  0
  8  9  2  0
  9 10  1  0
 10 11  2  0
 11 12  1  0
 12 13  2  0
 13 14  1  0
 13 15  1  0
 15 16  2  0
 16 17  1  0
 16 18  1  0
 18 19  2  0
 19 20  1  0
 11 21  1  0
 21 22  2  0
 22 23  1  0
 23 24  2  0
 24 25  1  0
 25 26  2  0
 26 27  1  0
 27 28  2  0
 27 29  1  0
 29 30  1  0
 30 31  1  0
 24 32  1  0
 32 33  1  0
 33 34  1  0
 33 35  1  0
 10 36  1  0
 36 37  2  0
 37  8  1  0
 33  9  1  0
 19 12  1  0
 32 21  1  0
  1 38  1  0
  1 39  1  0
  1 40  1  0
  2 41  1  0
  2 42  1  0
  6 43  1  0
  7 44  1  0
 14 45  1  0
 14 46  1  0
 14 47  1  0
 15 48  1  0
 17 49  1  0
 17 50  1  0
 17 51  1  0
 18 52  1  0
 20 53  1  0
 20 54  1  0
 20 55  1  0
 22 56  1  0
 23 57  1  0
 25 58  1  0
 26 59  1  0
 30 60  1  0
 30 61  1  0
 31 62  1  0
 31 63  1  0
 31 64  1  0
 36 65  1  0
 37 66  1  0
M  CHG  2   9   1  33  -1
M  END
