
     RDKit          3D

 40 44  0  0  0  0  0  0  0  0999 V2000
    0.7236   -3.5504   -0.1537 C   0  0  0  0  0  0  0  0  0  0  0  0
   -0.6548   -3.5710   -0.1296 C   0  0  0  0  0  0  0  0  0  0  0  0
   -1.3536   -2.3968   -0.0758 C   0  0  0  0  0  0  0  0  0  0  0  0
   -0.6520   -1.2076   -0.0459 C   0  0  0  0  0  0  0  0  0  0  0  0
   -1.3365    0.0022    0.0136 C   0  0  0  0  0  0  0  0  0  0  0  0
   -2.7892   -0.0146    0.0448 C   0  0  0  0  0  0  0  0  0  0  0  0
   -3.5525   -0.1963   -1.0744 C   0  0  0  0  0  0  0  0  0  0  0  0
   -4.8986   -0.2005   -1.0464 N   0  0  0  0  0  0  0  0  0  0  0  0
   -5.5506   -0.0229    0.1046 C   0  0  0  0  0  0  0  0  0  0  0  0
   -4.8133    0.1577    1.2243 N   0  0  0  0  0  0  0  0  0  0  0  0
   -3.4721    0.1663    1.2249 C   0  0  0  0  0  0  0  0  0  0  0  0
   -0.6828    1.2299    0.0504 C   0  0  0  0  0  0  0  0  0  0  0  0
   -1.4312    2.3976    0.1103 C   0  0  0  0  0  0  0  0  0  0  0  0
   -0.7650    3.5932    0.1467 C   0  0  0  0  0  0  0  0  0  0  0  0
    0.6197    3.5978    0.1225 C   0  0  0  0  0  0  0  0  0  0  0  0
    1.3519    2.4333    0.0631 C   0  0  0  0  0  0  0  0  0  0  0  0
    0.6916    1.2183    0.0260 C   0  0  0  0  0  0  0  0  0  0  0  0
    1.4198    0.0481   -0.0333 C   0  0  0  0  0  0  0  0  0  0  0  0
    2.8636    0.0152   -0.0543 C   0  0  0  0  0  0  0  0  0  0  0  0
    3.5389    0.3236   -1.1954 C   0  0  0  0  0  0  0  0  0  0  0  0
    4.8918    0.2860   -1.2091 N   0  0  0  0  0  0  0  0  0  0  0  0
    5.5723   -0.0534   -0.1069 C   0  0  0  0  0  0  0  0  0  0  0  0
    4.8928   -0.3606    1.0282 N   0  0  0  0  0  0  0  0  0  0  0  0
    3.5532   -0.3420    1.1078 C   0  0  0  0  0  0  0  0  0  0  0  0
    0.7246   -1.1519   -0.0684 C   0  0  0  0  0  0  0  0  0  0  0  0
    1.4126   -2.3642   -0.1238 C   0  0  0  0  0  0  0  0  0  0  0  0
    1.2695   -4.4985   -0.1971 H   0  0  0  0  0  0  0  0  0  0  0  0
   -1.2084   -4.5058   -0.1518 H   0  0  0  0  0  0  0  0  0  0  0  0
   -2.4409   -2.3440   -0.0528 H   0  0  0  0  0  0  0  0  0  0  0  0
   -3.1197   -0.3526   -2.0797 H   0  0  0  0  0  0  0  0  0  0  0  0
   -6.6513   -0.0225    0.1548 H   0  0  0  0  0  0  0  0  0  0  0  0
   -2.9837    0.3220    2.1867 H   0  0  0  0  0  0  0  0  0  0  0  0
   -2.5257    2.3049    0.1261 H   0  0  0  0  0  0  0  0  0  0  0  0
   -1.3642    4.4897    0.1928 H   0  0  0  0  0  0  0  0  0  0  0  0
    1.1204    4.5514    0.1516 H   0  0  0  0  0  0  0  0  0  0  0  0
    2.4378    2.4013    0.0416 H   0  0  0  0  0  0  0  0  0  0  0  0
    2.9881    0.6046   -2.1082 H   0  0  0  0  0  0  0  0  0  0  0  0
    6.6616   -0.0935   -0.0861 H   0  0  0  0  0  0  0  0  0  0  0  0
    3.0043   -0.5862    2.0141 H   0  0  0  0  0  0  0  0  0  0  0  0
    2.5081   -2.3077   -0.1421 H   0  0  0  0  0  0  0  0  0  0  0  0
  1  2  2  0
  2  3  1  0
  3  4  2  0
  4  5  1  0
  5  6  1  0
  6  7  2  0
  7  8  1  0
  8  9  2  0
  9 10  1  0
 10 11  2  0
  5 12  2  0
 12 13  1  0
 13 14  2  0
 14 15  1  0
 15 16  2  0
 16 17  1  0
 17 18  2  0
 18 19  1  0
 19 20  2  0
 20 21  1  0
 21 22  2  0
 22 23  1  0
 23 24  2  0
 18 25  1  0
 25 26  2  0
 26  1  1  0
 25  4  1  0
 11  6  1  0
 17 12  1  0
 24 19  1  0
  1 27  1  0
  2 28  1  0
  3 29  1  0
  7 30  1  0
  9 31  1  0
 11 32  1  0
 13 33  1  0
 14 34  1  0
 15 35  1  0
 16 36  1  0
 20 37  1  0
 22 38  1  0
 24 39  1  0
 26 40  1  0
M  END
