
     RDKit          3D

 85 92  0  0  0  0  0  0  0  0999 V2000
    4.4347   -2.7818   -0.0992 C   0  0  0  0  0  0  0  0  0  0  0  0
    4.8907   -1.5827    0.4595 O   0  0  0  0  0  0  0  0  0  0  0  0
    4.0022   -0.5050    0.5942 C   0  0  0  0  0  0  0  0  0  0  0  0
    2.6853   -0.5661    0.1967 C   0  0  0  0  0  0  0  0  0  0  0  0
    1.7873    0.4680    0.3154 C   0  0  0  0  0  0  0  0  0  0  0  0
    2.3079    1.6135    0.8748 C   0  0  0  0  0  0  0  0  0  0  0  0
    3.6291    1.7323    1.2932 C   0  0  0  0  0  0  0  0  0  0  0  0
    4.4792    0.6730    1.1544 C   0  0  0  0  0  0  0  0  0  0  0  0
    5.8653    0.7454    1.5875 C   0  0  0  0  0  0  0  0  0  0  0  0
    6.8975    0.2551    0.8207 C   0  0  0  0  0  0  0  0  0  0  0  0
    8.1745    0.3653    1.3082 C   0  0  0  0  0  0  0  0  0  0  0  0
    8.4549    0.9415    2.5201 C   0  0  0  0  0  0  0  0  0  0  0  0
    9.7975    1.0587    3.0376 C   0  0  0  0  0  0  0  0  0  0  0  0
   10.7441    0.5948    2.3176 O   0  0  0  0  0  0  0  0  0  0  0  0
    7.4241    1.4425    3.3074 C   0  0  0  0  0  0  0  0  0  0  0  0
    6.1510    1.3283    2.8136 C   0  0  0  0  0  0  0  0  0  0  0  0
    1.2810    2.6721    0.9673 C   0  0  0  0  0  0  0  0  0  0  0  0
    0.1234    2.0733    0.2970 C   0  0  0  0  0  0  0  0  0  0  0  0
   -1.0737    2.7004    0.0450 C   0  0  0  0  0  0  0  0  0  0  0  0
   -2.0460    1.9934   -0.5744 C   0  0  0  0  0  0  0  0  0  0  0  0
   -1.7704    0.6636   -0.9131 C   0  0  0  0  0  0  0  0  0  0  0  0
   -0.5707    0.0174   -0.6610 C   0  0  0  0  0  0  0  0  0  0  0  0
    0.4089    0.7444   -0.0431 C   0  0  0  0  0  0  0  0  0  0  0  0
   -0.6964   -1.3859   -1.0923 C   0  0  0  0  0  0  0  0  0  0  0  0
    0.1087   -2.5084   -1.0370 C   0  0  0  0  0  0  0  0  0  0  0  0
   -0.3391   -3.7473   -1.4830 C   0  0  0  0  0  0  0  0  0  0  0  0
    0.4710   -4.8672   -1.4286 O   0  0  0  0  0  0  0  0  0  0  0  0
    1.7680   -4.9195   -0.9542 C   0  0  0  0  0  0  0  0  0  0  0  0
   -1.6255   -3.8759   -1.9974 C   0  0  0  0  0  0  0  0  0  0  0  0
   -2.1125   -5.1544   -2.4697 C   0  0  0  0  0  0  0  0  0  0  0  0
   -1.3993   -5.9922   -3.2816 C   0  0  0  0  0  0  0  0  0  0  0  0
   -1.9408   -7.1824   -3.6732 C   0  0  0  0  0  0  0  0  0  0  0  0
   -3.2051   -7.5711   -3.2682 C   0  0  0  0  0  0  0  0  0  0  0  0
   -3.7501   -8.8480   -3.7086 C   0  0  0  0  0  0  0  0  0  0  0  0
   -4.8984   -9.2181   -3.3494 O   0  0  0  0  0  0  0  0  0  0  0  0
   -3.9516   -6.7542   -2.4515 C   0  0  0  0  0  0  0  0  0  0  0  0
   -3.3725   -5.5496   -2.0704 C   0  0  0  0  0  0  0  0  0  0  0  0
   -2.4043   -2.7709   -2.0445 C   0  0  0  0  0  0  0  0  0  0  0  0
   -1.9741   -1.5169   -1.6029 C   0  0  0  0  0  0  0  0  0  0  0  0
   -2.7044   -0.2348   -1.5947 C   0  0  0  0  0  0  0  0  0  0  0  0
   -3.2227    2.8497   -0.7415 C   0  0  0  0  0  0  0  0  0  0  0  0
   -4.2895    2.5076   -1.2743 O   0  0  0  0  0  0  0  0  0  0  0  0
   -2.9316    4.1239   -0.1938 N   0  0  0  0  0  0  0  0  0  0  0  0
   -3.7767    5.3068   -0.1119 C   0  0  0  0  0  0  0  0  0  0  0  0
   -4.5598    5.3103    1.1835 C   0  0  0  0  0  0  0  0  0  0  0  0
   -5.4284    6.5386    1.2517 C   0  0  0  0  0  0  0  0  0  0  0  0
   -6.4238    6.6222    0.1249 C   0  0  0  0  0  0  0  0  0  0  0  0
   -6.1763    6.6205    2.5603 C   0  0  0  0  0  0  0  0  0  0  0  0
   -1.6014    4.0405    0.2957 C   0  0  0  0  0  0  0  0  0  0  0  0
   -0.9601    4.9650    0.8596 O   0  0  0  0  0  0  0  0  0  0  0  0
    4.2419   -2.6969   -1.1876 H   0  0  0  0  0  0  0  0  0  0  0  0
    3.4787   -3.0547    0.3917 H   0  0  0  0  0  0  0  0  0  0  0  0
    5.1296   -3.6322    0.1072 H   0  0  0  0  0  0  0  0  0  0  0  0
    2.3917   -1.4682   -0.2628 H   0  0  0  0  0  0  0  0  0  0  0  0
    3.9812    2.6658    1.7307 H   0  0  0  0  0  0  0  0  0  0  0  0
    6.7260   -0.2020   -0.1310 H   0  0  0  0  0  0  0  0  0  0  0  0
    8.9941   -0.0217    0.7081 H   0  0  0  0  0  0  0  0  0  0  0  0
   10.0256    1.5151    3.9928 H   0  0  0  0  0  0  0  0  0  0  0  0
    7.5946    1.9090    4.2689 H   0  0  0  0  0  0  0  0  0  0  0  0
    5.3429    1.7163    3.4244 H   0  0  0  0  0  0  0  0  0  0  0  0
    1.6275    3.6154    0.4864 H   0  0  0  0  0  0  0  0  0  0  0  0
    1.0934    2.9347    2.0274 H   0  0  0  0  0  0  0  0  0  0  0  0
    1.0758   -2.4652   -0.6176 H   0  0  0  0  0  0  0  0  0  0  0  0
    1.7583   -4.6446    0.1181 H   0  0  0  0  0  0  0  0  0  0  0  0
    2.1262   -5.9806   -1.0791 H   0  0  0  0  0  0  0  0  0  0  0  0
    2.4558   -4.2298   -1.5143 H   0  0  0  0  0  0  0  0  0  0  0  0
   -0.4204   -5.7158   -3.6079 H   0  0  0  0  0  0  0  0  0  0  0  0
   -1.4099   -7.8834   -4.3212 H   0  0  0  0  0  0  0  0  0  0  0  0
   -3.2005   -9.5166   -4.3491 H   0  0  0  0  0  0  0  0  0  0  0  0
   -4.9556   -7.0136   -2.1004 H   0  0  0  0  0  0  0  0  0  0  0  0
   -3.9748   -4.8981   -1.4168 H   0  0  0  0  0  0  0  0  0  0  0  0
   -3.4320   -2.8012   -2.4397 H   0  0  0  0  0  0  0  0  0  0  0  0
   -2.9713    0.0884   -2.6271 H   0  0  0  0  0  0  0  0  0  0  0  0
   -3.6325   -0.2960   -0.9533 H   0  0  0  0  0  0  0  0  0  0  0  0
   -4.5012    5.2566   -0.9683 H   0  0  0  0  0  0  0  0  0  0  0  0
   -3.2110    6.2342   -0.2121 H   0  0  0  0  0  0  0  0  0  0  0  0
   -3.8148    5.4059    2.0104 H   0  0  0  0  0  0  0  0  0  0  0  0
   -5.1527    4.4086    1.3285 H   0  0  0  0  0  0  0  0  0  0  0  0
   -4.7587    7.4283    1.1881 H   0  0  0  0  0  0  0  0  0  0  0  0
   -5.9898    6.8918   -0.8391 H   0  0  0  0  0  0  0  0  0  0  0  0
   -7.0219    5.6655    0.0555 H   0  0  0  0  0  0  0  0  0  0  0  0
   -7.1867    7.3932    0.3796 H   0  0  0  0  0  0  0  0  0  0  0  0
   -6.4163    5.5703    2.8655 H   0  0  0  0  0  0  0  0  0  0  0  0
   -5.5772    7.1592    3.3226 H   0  0  0  0  0  0  0  0  0  0  0  0
   -7.0968    7.2265    2.3703 H   0  0  0  0  0  0  0  0  0  0  0  0
  1  2  1  0
  2  3  1  0
  3  4  2  0
  4  5  1  0
  5  6  2  0
  6  7  1  0
  7  8  2  0
  8  9  1  0
  9 10  2  0
 10 11  1  0
 11 12  2  0
 12 13  1  0
 13 14  2  0
 12 15  1  0
 15 16  2  0
  6 17  1  0
 17 18  1  0
 18 19  2  0
 19 20  1  0
 20 21  2  0
 21 22  1  0
 22 23  2  0
 22 24  1  0
 24 25  2  0
 25 26  1  0
 26 27  1  0
 27 28  1  0
 26 29  2  0
 29 30  1  0
 30 31  2  0
 31 32  1  0
 32 33  2  0
 33 34  1  0
 34 35  2  0
 33 36  1  0
 36 37  2  0
 29 38  1  0
 38 39  2  0
 39 40  1  0
 20 41  1  0
 41 42  2  0
 41 43  1  0
 43 44  1  0
 44 45  1  0
 45 46  1  0
 46 47  1  0
 46 48  1  0
 43 49  1  0
 49 50  2  0
  8  3  1  0
 16  9  1  0
 23 18  1  0
 39 24  1  0
 23  5  1  0
 37 30  1  0
 49 19  1  0
 40 21  1  0
  1 51  1  0
  1 52  1  0
  1 53  1  0
  4 54  1  0
  7 55  1  0
 10 56  1  0
 11 57  1  0
 13 58  1  0
 15 59  1  0
 16 60  1  0
 17 61  1  0
 17 62  1  0
 25 63  1  0
 28 64  1  0
 28 65  1  0
 28 66  1  0
 31 67  1  0
 32 68  1  0
 34 69  1  0
 36 70  1  0
 37 71  1  0
 38 72  1  0
 40 73  1  0
 40 74  1  0
 44 75  1  0
 44 76  1  0
 45 77  1  0
 45 78  1  0
 46 79  1  0
 47 80  1  0
 47 81  1  0
 47 82  1  0
 48 83  1  0
 48 84  1  0
 48 85  1  0
M  END
