
     RDKit          3D

 31 33  0  0  0  0  0  0  0  0999 V2000
   -0.9418   -0.8809    1.4281 C   0  0  0  0  0  0  0  0  0  0  0  0
   -0.4503   -0.0993    0.2799 C   0  0  0  0  0  0  0  0  0  0  0  0
   -1.2248    0.5637   -0.5464 C   0  0  0  0  0  0  0  0  0  0  0  0
   -2.6712    0.5728   -0.3742 C   0  0  0  0  0  0  0  0  0  0  0  0
   -3.4987    0.2954   -1.4715 C   0  0  0  0  0  0  0  0  0  0  0  0
   -4.8721    0.3079   -1.3952 C   0  0  0  0  0  0  0  0  0  0  0  0
   -5.4895    0.6024   -0.1970 C   0  0  0  0  0  0  0  0  0  0  0  0
   -7.2564    0.6094   -0.1124 Cl  0  0  0  0  0  0  0  0  0  0  0  0
   -4.6982    0.8786    0.8920 C   0  0  0  0  0  0  0  0  0  0  0  0
   -3.3066    0.8658    0.8104 C   0  0  0  0  0  0  0  0  0  0  0  0
    1.0255   -0.0751    0.1034 C   0  0  0  0  0  0  0  0  0  0  0  0
    1.9448   -0.7046    0.8103 N   0  0  0  0  0  0  0  0  0  0  0  0
    3.2080   -0.5460    0.5095 C   0  0  0  0  0  0  0  0  0  0  0  0
    4.2838   -1.1503    1.1777 C   0  0  0  0  0  0  0  0  0  0  0  0
    5.5578   -0.9065    0.7744 C   0  0  0  0  0  0  0  0  0  0  0  0
    5.9048   -0.0801   -0.2795 C   0  0  0  0  0  0  0  0  0  0  0  0
    4.8379    0.5090   -0.9299 C   0  0  0  0  0  0  0  0  0  0  0  0
    3.5125    0.2737   -0.5346 C   0  0  0  0  0  0  0  0  0  0  0  0
    1.9640    0.7812   -1.0389 S   0  0  0  0  0  0  0  0  0  0  0  0
   -2.0089   -1.1272    1.4051 H   0  0  0  0  0  0  0  0  0  0  0  0
   -0.3920   -1.8547    1.4063 H   0  0  0  0  0  0  0  0  0  0  0  0
   -0.7044   -0.3453    2.3857 H   0  0  0  0  0  0  0  0  0  0  0  0
   -0.7974    1.1246   -1.3827 H   0  0  0  0  0  0  0  0  0  0  0  0
   -3.0096    0.0689   -2.3853 H   0  0  0  0  0  0  0  0  0  0  0  0
   -5.5100    0.0950   -2.2400 H   0  0  0  0  0  0  0  0  0  0  0  0
   -5.1788    1.1111    1.8348 H   0  0  0  0  0  0  0  0  0  0  0  0
   -2.7040    1.0938    1.6853 H   0  0  0  0  0  0  0  0  0  0  0  0
    4.1492   -1.8156    2.0168 H   0  0  0  0  0  0  0  0  0  0  0  0
    6.4006   -1.3873    1.3053 H   0  0  0  0  0  0  0  0  0  0  0  0
    6.9373    0.0604   -0.5307 H   0  0  0  0  0  0  0  0  0  0  0  0
    4.9884    1.1593   -1.7519 H   0  0  0  0  0  0  0  0  0  0  0  0
  1  2  1  0
  2  3  2  0
  3  4  1  0
  4  5  2  0
  5  6  1  0
  6  7  2  0
  7  8  1  0
  7  9  1  0
  9 10  2  0
  2 11  1  0
 11 12  2  0
 12 13  1  0
 13 14  2  0
 14 15  1  0
 15 16  2  0
 16 17  1  0
 17 18  2  0
 18 19  1  0
 10  4  1  0
 19 11  1  0
 18 13  1  0
  1 20  1  0
  1 21  1  0
  1 22  1  0
  3 23  1  0
  5 24  1  0
  6 25  1  0
  9 26  1  0
 10 27  1  0
 14 28  1  0
 15 29  1  0
 16 30  1  0
 17 31  1  0
M  END
