
     RDKit          3D

 41 45  0  0  0  0  0  0  0  0999 V2000
    2.1803    0.1591    7.7028 C   0  0  0  0  0  0  0  0  0  0  0  0
    2.1413    0.7171    6.4036 O   0  0  0  0  0  0  0  0  0  0  0  0
    1.5031    0.0934    5.3428 C   0  0  0  0  0  0  0  0  0  0  0  0
    0.8710   -1.1048    5.4945 N   0  0  0  0  0  0  0  0  0  0  0  0
    0.2624   -1.6816    4.4457 C   0  0  0  0  0  0  0  0  0  0  0  0
   -0.5570   -3.2112    4.5938 Cl  0  0  0  0  0  0  0  0  0  0  0  0
    0.2928   -1.0603    3.2707 N   0  0  0  0  0  0  0  0  0  0  0  0
    0.8860    0.1073    3.0387 C   0  0  0  0  0  0  0  0  0  0  0  0
    0.9332    0.7941    1.7907 N   0  0  0  0  0  0  0  0  0  0  0  0
    0.3620    0.3638    0.5817 C   0  0  0  0  0  0  0  0  0  0  0  0
   -0.3399   -0.8016    0.4618 C   0  0  0  0  0  0  0  0  0  0  0  0
   -0.8906   -1.1814   -0.7668 C   0  0  0  0  0  0  0  0  0  0  0  0
   -0.7654   -0.4281   -1.9033 C   0  0  0  0  0  0  0  0  0  0  0  0
   -0.0523    0.7524   -1.7740 C   0  0  0  0  0  0  0  0  0  0  0  0
    0.0845    1.5259   -2.9120 C   0  0  0  0  0  0  0  0  0  0  0  0
    0.7856    2.7127   -2.8420 C   0  0  0  0  0  0  0  0  0  0  0  0
    1.3406    3.1269   -1.6707 C   0  0  0  0  0  0  0  0  0  0  0  0
    1.2107    2.3559   -0.5129 C   0  0  0  0  0  0  0  0  0  0  0  0
    0.5139    1.1659   -0.5595 C   0  0  0  0  0  0  0  0  0  0  0  0
   -0.5022    1.1140   -4.2056 C   0  0  0  0  0  0  0  0  0  0  0  0
   -0.3598    1.8365   -5.2137 O   0  0  0  0  0  0  0  0  0  0  0  0
   -1.2359   -0.1218   -4.2926 C   0  0  0  0  0  0  0  0  0  0  0  0
   -1.8052   -0.5607   -5.4637 C   0  0  0  0  0  0  0  0  0  0  0  0
   -2.5047   -1.7463   -5.5302 C   0  0  0  0  0  0  0  0  0  0  0  0
   -2.6490   -2.5280   -4.4036 C   0  0  0  0  0  0  0  0  0  0  0  0
   -2.0792   -2.0921   -3.2242 C   0  0  0  0  0  0  0  0  0  0  0  0
   -1.3742   -0.9062   -3.1380 C   0  0  0  0  0  0  0  0  0  0  0  0
    1.4955    0.6620    4.1367 N   0  0  0  0  0  0  0  0  0  0  0  0
    1.1883    0.3420    8.1655 H   0  0  0  0  0  0  0  0  0  0  0  0
    2.9394    0.6035    8.3427 H   0  0  0  0  0  0  0  0  0  0  0  0
    2.2712   -0.9658    7.6524 H   0  0  0  0  0  0  0  0  0  0  0  0
    1.4588    1.7048    1.8416 H   0  0  0  0  0  0  0  0  0  0  0  0
   -0.5046   -1.4772    1.2891 H   0  0  0  0  0  0  0  0  0  0  0  0
   -1.4418   -2.1101   -0.8315 H   0  0  0  0  0  0  0  0  0  0  0  0
    0.8617    3.2839   -3.7746 H   0  0  0  0  0  0  0  0  0  0  0  0
    1.8955    4.0693   -1.6231 H   0  0  0  0  0  0  0  0  0  0  0  0
    1.6705    2.7227    0.4055 H   0  0  0  0  0  0  0  0  0  0  0  0
   -1.7212    0.0248   -6.3958 H   0  0  0  0  0  0  0  0  0  0  0  0
   -2.9368   -2.0451   -6.4918 H   0  0  0  0  0  0  0  0  0  0  0  0
   -3.2069   -3.4804   -4.4422 H   0  0  0  0  0  0  0  0  0  0  0  0
   -2.2214   -2.7354   -2.3832 H   0  0  0  0  0  0  0  0  0  0  0  0
  1  2  1  0
  2  3  1  0
  3  4  2  0
  4  5  1  0
  5  6  1  0
  5  7  2  0
  7  8  1  0
  8  9  1  0
  9 10  1  0
 10 11  2  0
 11 12  1  0
 12 13  2  0
 13 14  1  0
 14 15  2  0
 15 16  1  0
 16 17  2  0
 17 18  1  0
 18 19  2  0
 15 20  1  0
 20 21  2  0
 20 22  1  0
 22 23  2  0
 23 24  1  0
 24 25  2  0
 25 26  1  0
 26 27  2  0
  8 28  2  0
 28  3  1  0
 19 10  1  0
 27 22  1  0
 27 13  1  0
 19 14  1  0
  1 29  1  0
  1 30  1  0
  1 31  1  0
  9 32  1  0
 11 33  1  0
 12 34  1  0
 16 35  1  0
 17 36  1  0
 18 37  1  0
 23 38  1  0
 24 39  1  0
 25 40  1  0
 26 41  1  0
M  END
