
     RDKit          3D

 72 80  0  0  0  0  0  0  0  0999 V2000
    7.8057   -3.5653    0.4998 C   0  0  0  0  0  0  0  0  0  0  0  0
    6.4638   -3.9775    0.5481 O   0  0  0  0  0  0  0  0  0  0  0  0
    5.4310   -3.0466    0.4451 C   0  0  0  0  0  0  0  0  0  0  0  0
    4.1125   -3.4299    0.4888 C   0  0  0  0  0  0  0  0  0  0  0  0
    3.0751   -2.4917    0.3844 C   0  0  0  0  0  0  0  0  0  0  0  0
    3.4068   -1.1712    0.2364 C   0  0  0  0  0  0  0  0  0  0  0  0
    4.7175   -0.7453    0.1886 C   0  0  0  0  0  0  0  0  0  0  0  0
    5.7234   -1.7149    0.2964 C   0  0  0  0  0  0  0  0  0  0  0  0
    5.1840    0.6573    0.0373 C   0  0  0  0  0  0  0  0  0  0  0  0
    4.1323    1.6558   -0.1061 C   0  0  0  0  0  0  0  0  0  0  0  0
    2.7342    1.1802   -0.0500 C   0  0  0  0  0  0  0  0  0  0  0  0
    1.5882    1.9362   -0.1450 C   0  0  0  0  0  0  0  0  0  0  0  0
    1.4230    3.3608   -0.3236 C   0  0  0  0  0  0  0  0  0  0  0  0
    1.4956    4.2871    0.6936 C   0  0  0  0  0  0  0  0  0  0  0  0
    1.3233    5.6298    0.4394 C   0  0  0  0  0  0  0  0  0  0  0  0
    1.0751    6.0714   -0.8380 C   0  0  0  0  0  0  0  0  0  0  0  0
    0.9935    5.1819   -1.8884 C   0  0  0  0  0  0  0  0  0  0  0  0
    1.1683    3.8473   -1.6130 C   0  0  0  0  0  0  0  0  0  0  0  0
    0.5312    1.0348   -0.0381 C   0  0  0  0  0  0  0  0  0  0  0  0
    0.9811   -0.2099    0.1147 N   0  0  0  0  0  0  0  0  0  0  0  0
    2.3557   -0.1462    0.1102 C   0  0  0  0  0  0  0  0  0  0  0  0
   -0.0103   -1.3788    0.2656 B   0  0  0  0  0  4  0  0  0  0  0  0
    0.3299   -2.2536   -0.8541 F   0  0  0  0  0  0  0  0  0  0  0  0
    0.2913   -2.0670    1.5082 F   0  0  0  0  0  0  0  0  0  0  0  0
   -1.4468   -0.9586    0.1854 N   0  0  0  0  0  4  0  0  0  0  0  0
   -2.5950   -1.5645    0.2338 C   0  0  0  0  0  0  0  0  0  0  0  0
   -3.6892   -0.6020    0.1051 C   0  0  0  0  0  0  0  0  0  0  0  0
   -3.1782    0.6091   -0.0343 C   0  0  0  0  0  0  0  0  0  0  0  0
   -3.8852    1.8752   -0.1954 C   0  0  0  0  0  0  0  0  0  0  0  0
   -3.3590    2.7868   -1.1041 C   0  0  0  0  0  0  0  0  0  0  0  0
   -3.9704    3.9977   -1.2999 C   0  0  0  0  0  0  0  0  0  0  0  0
   -5.1160    4.3622   -0.6171 C   0  0  0  0  0  0  0  0  0  0  0  0
   -5.6083    3.4343    0.2749 C   0  0  0  0  0  0  0  0  0  0  0  0
   -5.0216    2.2070    0.4991 C   0  0  0  0  0  0  0  0  0  0  0  0
   -1.7458    0.4083    0.0129 C   0  0  0  0  0  0  0  0  0  0  0  0
   -0.8514    1.3189   -0.0874 N   0  0  0  0  0  0  0  0  0  0  0  0
   -5.0915   -1.0119    0.2058 C   0  0  0  0  0  0  0  0  0  0  0  0
   -5.3840   -2.4093   -0.1136 C   0  0  0  0  0  0  0  0  0  0  0  0
   -4.2801   -3.3516    0.1865 C   0  0  0  0  0  0  0  0  0  0  0  0
   -4.6327   -4.6994    0.3046 C   0  0  0  0  0  0  0  0  0  0  0  0
   -3.6726   -5.6506    0.5075 C   0  0  0  0  0  0  0  0  0  0  0  0
   -2.3476   -5.2898    0.5972 C   0  0  0  0  0  0  0  0  0  0  0  0
   -1.9790   -3.9446    0.4823 C   0  0  0  0  0  0  0  0  0  0  0  0
   -2.9455   -2.9959    0.2810 C   0  0  0  0  0  0  0  0  0  0  0  0
    8.1629   -3.4197   -0.5560 H   0  0  0  0  0  0  0  0  0  0  0  0
    8.4588   -4.3917    0.8933 H   0  0  0  0  0  0  0  0  0  0  0  0
    8.0343   -2.6900    1.1424 H   0  0  0  0  0  0  0  0  0  0  0  0
    3.8937   -4.4795    0.6064 H   0  0  0  0  0  0  0  0  0  0  0  0
    2.0997   -2.8985    0.4299 H   0  0  0  0  0  0  0  0  0  0  0  0
    6.7546   -1.3681    0.2576 H   0  0  0  0  0  0  0  0  0  0  0  0
    5.9184    0.7135   -0.8056 H   0  0  0  0  0  0  0  0  0  0  0  0
    5.7635    0.8534    0.9950 H   0  0  0  0  0  0  0  0  0  0  0  0
    4.2678    2.3356   -1.0105 H   0  0  0  0  0  0  0  0  0  0  0  0
    4.2081    2.4091    0.7409 H   0  0  0  0  0  0  0  0  0  0  0  0
    1.6929    3.9098    1.6889 H   0  0  0  0  0  0  0  0  0  0  0  0
    1.3903    6.3208    1.2793 H   0  0  0  0  0  0  0  0  0  0  0  0
    0.9364    7.1353   -1.0539 H   0  0  0  0  0  0  0  0  0  0  0  0
    0.8005    5.4993   -2.9031 H   0  0  0  0  0  0  0  0  0  0  0  0
    1.1018    3.1426   -2.4538 H   0  0  0  0  0  0  0  0  0  0  0  0
   -2.4803    2.5373   -1.6434 H   0  0  0  0  0  0  0  0  0  0  0  0
   -3.5395    4.6879   -2.0143 H   0  0  0  0  0  0  0  0  0  0  0  0
   -5.6017    5.3152   -0.7687 H   0  0  0  0  0  0  0  0  0  0  0  0
   -6.5129    3.6633    0.8467 H   0  0  0  0  0  0  0  0  0  0  0  0
   -5.4645    1.5366    1.2167 H   0  0  0  0  0  0  0  0  0  0  0  0
   -5.4552   -0.8100    1.2583 H   0  0  0  0  0  0  0  0  0  0  0  0
   -5.6859   -0.3543   -0.4914 H   0  0  0  0  0  0  0  0  0  0  0  0
   -6.2497   -2.7601    0.5314 H   0  0  0  0  0  0  0  0  0  0  0  0
   -5.7801   -2.5681   -1.1500 H   0  0  0  0  0  0  0  0  0  0  0  0
   -5.6787   -4.9921    0.2342 H   0  0  0  0  0  0  0  0  0  0  0  0
   -3.9812   -6.6876    0.5943 H   0  0  0  0  0  0  0  0  0  0  0  0
   -1.6228   -6.0722    0.7564 H   0  0  0  0  0  0  0  0  0  0  0  0
   -0.9637   -3.7341    0.5541 H   0  0  0  0  0  0  0  0  0  0  0  0
  1  2  1  0
  2  3  1  0
  3  4  2  0
  4  5  1  0
  5  6  2  0
  6  7  1  0
  7  8  2  0
  7  9  1  0
  9 10  1  0
 10 11  1  0
 11 12  1  0
 12 13  1  0
 13 14  2  0
 14 15  1  0
 15 16  2  0
 16 17  1  0
 17 18  2  0
 12 19  2  0
 19 20  1  0
 20 21  1  0
 20 22  1  0
 22 23  1  0
 22 24  1  0
 22 25  1  0
 25 26  2  0
 26 27  1  0
 27 28  2  0
 28 29  1  0
 29 30  2  0
 30 31  1  0
 31 32  2  0
 32 33  1  0
 33 34  2  0
 28 35  1  0
 35 36  2  0
 27 37  1  0
 37 38  1  0
 38 39  1  0
 39 40  2  0
 40 41  1  0
 41 42  2  0
 42 43  1  0
 43 44  2  0
  8  3  1  0
 21 11  2  0
 35 25  1  0
 44 39  1  0
 21  6  1  0
 44 26  1  0
 18 13  1  0
 36 19  1  0
 34 29  1  0
  1 45  1  0
  1 46  1  0
  1 47  1  0
  4 48  1  0
  5 49  1  0
  8 50  1  0
  9 51  1  0
  9 52  1  0
 10 53  1  0
 10 54  1  0
 14 55  1  0
 15 56  1  0
 16 57  1  0
 17 58  1  0
 18 59  1  0
 30 60  1  0
 31 61  1  0
 32 62  1  0
 33 63  1  0
 34 64  1  0
 37 65  1  0
 37 66  1  0
 38 67  1  0
 38 68  1  0
 40 69  1  0
 41 70  1  0
 42 71  1  0
 43 72  1  0
M  CHG  2  22  -1  25   1
M  END
