
     RDKit          3D

 35 37  0  0  0  0  0  0  0  0999 V2000
   -2.6734    2.8995    0.7568 C   0  0  0  0  0  0  0  0  0  0  0  0
   -1.6642    1.8311    0.5088 C   0  0  0  0  0  0  0  0  0  0  0  0
   -0.3555    1.9326    0.2954 N   0  0  0  0  0  0  0  0  0  0  0  0
    0.2163    0.7008    0.1098 C   0  0  0  0  0  0  0  0  0  0  0  0
    1.6376    0.4733   -0.1717 C   0  0  0  0  0  0  0  0  0  0  0  0
    2.2699   -0.7144    0.1219 C   0  0  0  0  0  0  0  0  0  0  0  0
    3.5871   -1.0090   -0.1580 C   0  0  0  0  0  0  0  0  0  0  0  0
    4.1871   -2.2457    0.1636 N   0  0  0  0  0  0  0  0  0  0  0  0
    4.3238   -0.0275   -0.7816 C   0  0  0  0  0  0  0  0  0  0  0  0
    3.7855    1.1688   -1.1060 C   0  0  0  0  0  0  0  0  0  0  0  0
    2.4279    1.4244   -0.7991 C   0  0  0  0  0  0  0  0  0  0  0  0
    1.9555    2.6411   -1.1551 O   0  0  0  0  0  0  0  0  0  0  0  0
   -0.7516   -0.2078    0.2039 N   0  0  0  0  0  0  0  0  0  0  0  0
   -1.9168    0.4678    0.4520 C   0  0  0  0  0  0  0  0  0  0  0  0
   -3.1599   -0.2837    0.6346 C   0  0  0  0  0  0  0  0  0  0  0  0
   -3.3345   -1.2748   -0.4570 C   0  0  0  0  0  0  0  0  0  0  0  0
   -2.0386   -1.8224   -0.9615 C   0  0  0  0  0  0  0  0  0  0  0  0
   -0.8942   -1.6451    0.0715 C   0  0  0  0  0  0  0  0  0  0  0  0
   -2.1970    3.8308    1.0788 H   0  0  0  0  0  0  0  0  0  0  0  0
   -3.4308    2.5009    1.4494 H   0  0  0  0  0  0  0  0  0  0  0  0
   -3.1596    3.0974   -0.2284 H   0  0  0  0  0  0  0  0  0  0  0  0
    1.7440   -1.5038    0.6462 H   0  0  0  0  0  0  0  0  0  0  0  0
    4.1744   -3.0271   -0.5096 H   0  0  0  0  0  0  0  0  0  0  0  0
    4.6382   -2.3508    1.0857 H   0  0  0  0  0  0  0  0  0  0  0  0
    5.3755   -0.2025   -1.0294 H   0  0  0  0  0  0  0  0  0  0  0  0
    4.3771    1.9310   -1.5955 H   0  0  0  0  0  0  0  0  0  0  0  0
    1.0531    2.9779   -1.0338 H   0  0  0  0  0  0  0  0  0  0  0  0
   -4.0346    0.4149    0.6803 H   0  0  0  0  0  0  0  0  0  0  0  0
   -3.1517   -0.7624    1.6587 H   0  0  0  0  0  0  0  0  0  0  0  0
   -4.0530   -2.0923   -0.1784 H   0  0  0  0  0  0  0  0  0  0  0  0
   -3.8484   -0.7688   -1.3231 H   0  0  0  0  0  0  0  0  0  0  0  0
   -2.1319   -2.8914   -1.2320 H   0  0  0  0  0  0  0  0  0  0  0  0
   -1.7123   -1.2388   -1.8436 H   0  0  0  0  0  0  0  0  0  0  0  0
   -0.0424   -2.1367   -0.4365 H   0  0  0  0  0  0  0  0  0  0  0  0
   -1.2029   -2.0871    1.0165 H   0  0  0  0  0  0  0  0  0  0  0  0
  1  2  1  0
  2  3  1  0
  3  4  2  0
  4  5  1  0
  5  6  2  0
  6  7  1  0
  7  8  1  0
  7  9  2  0
  9 10  1  0
 10 11  2  0
 11 12  1  0
  4 13  1  0
 13 14  1  0
 14 15  1  0
 15 16  1  0
 16 17  1  0
 17 18  1  0
 14  2  2  0
 11  5  1  0
 18 13  1  0
  1 19  1  0
  1 20  1  0
  1 21  1  0
  6 22  1  0
  8 23  1  0
  8 24  1  0
  9 25  1  0
 10 26  1  0
 12 27  1  0
 15 28  1  0
 15 29  1  0
 16 30  1  0
 16 31  1  0
 17 32  1  0
 17 33  1  0
 18 34  1  0
 18 35  1  0
M  END
