
     RDKit          3D

 32 34  0  0  0  0  0  0  0  0999 V2000
   -7.9937    0.1677   -0.8776 O   0  0  0  0  0  0  0  0  0  0  0  0
   -7.2581   -0.1199    0.0865 N   0  0  0  0  0  4  0  0  0  0  0  0
   -7.8394   -0.4948    1.2720 O   0  0  0  0  0  1  0  0  0  0  0  0
   -5.8596   -0.0539   -0.0616 C   0  0  0  0  0  0  0  0  0  0  0  0
   -5.2359    0.3167   -1.2311 C   0  0  0  0  0  0  0  0  0  0  0  0
   -3.8854    0.3807   -1.3752 C   0  0  0  0  0  0  0  0  0  0  0  0
   -3.0251    0.0632   -0.3083 C   0  0  0  0  0  0  0  0  0  0  0  0
   -1.7221    0.0897   -0.3336 N   0  0  0  0  0  0  0  0  0  0  0  0
   -1.0323   -0.2330    0.7422 C   0  0  0  0  0  0  0  0  0  0  0  0
    0.4022   -0.2679    0.9219 N   0  0  0  0  0  0  0  0  0  0  0  0
    1.1389   -0.5321   -0.0791 N   0  0  0  0  0  0  0  0  0  0  0  0
    2.5566   -0.5875    0.0059 C   0  0  0  0  0  0  0  0  0  0  0  0
    3.2353   -1.6781   -0.4734 C   0  0  0  0  0  0  0  0  0  0  0  0
    4.5987   -1.7133   -0.3829 C   0  0  0  0  0  0  0  0  0  0  0  0
    5.2509   -0.6501    0.1882 C   0  0  0  0  0  0  0  0  0  0  0  0
    4.5931    0.4532    0.6753 C   0  0  0  0  0  0  0  0  0  0  0  0
    5.3815    1.5620    1.2793 C   0  0  0  0  0  0  0  0  0  0  0  0
    5.7516    2.5187    0.3376 O   0  0  0  0  0  0  0  0  0  0  0  0
    3.2232    0.4816    0.5809 C   0  0  0  0  0  0  0  0  0  0  0  0
   -2.2773   -0.5994    1.8691 S   0  0  0  0  0  0  0  0  0  0  0  0
   -3.6281   -0.3071    0.8608 C   0  0  0  0  0  0  0  0  0  0  0  0
   -5.0232   -0.3702    1.0002 C   0  0  0  0  0  0  0  0  0  0  0  0
   -5.8783    0.5753   -2.0972 H   0  0  0  0  0  0  0  0  0  0  0  0
   -3.4730    0.6880   -2.3497 H   0  0  0  0  0  0  0  0  0  0  0  0
    2.6958   -2.4935   -0.9144 H   0  0  0  0  0  0  0  0  0  0  0  0
    5.1181   -2.5707   -0.7608 H   0  0  0  0  0  0  0  0  0  0  0  0
    6.3208   -0.6917    0.2523 H   0  0  0  0  0  0  0  0  0  0  0  0
    4.8049    2.0388    2.1232 H   0  0  0  0  0  0  0  0  0  0  0  0
    6.2874    1.1431    1.7407 H   0  0  0  0  0  0  0  0  0  0  0  0
    5.4420    2.2100   -0.5426 H   0  0  0  0  0  0  0  0  0  0  0  0
    2.7058    1.3465    0.9626 H   0  0  0  0  0  0  0  0  0  0  0  0
   -5.3753   -0.6719    1.9593 H   0  0  0  0  0  0  0  0  0  0  0  0
  1  2  2  0
  2  3  1  0
  2  4  1  0
  4  5  2  0
  5  6  1  0
  6  7  2  0
  7  8  1  0
  8  9  2  0
  9 10  1  0
 10 11  2  0
 11 12  1  0
 12 13  2  0
 13 14  1  0
 14 15  2  0
 15 16  1  0
 16 17  1  0
 17 18  1  0
 16 19  2  0
  9 20  1  0
 20 21  1  0
 21 22  2  0
 22  4  1  0
 21  7  1  0
 19 12  1  0
  5 23  1  0
  6 24  1  0
 13 25  1  0
 14 26  1  0
 15 27  1  0
 17 28  1  0
 17 29  1  0
 18 30  1  0
 19 31  1  0
 22 32  1  0
M  CHG  2   2   1   3  -1
M  END
