
     RDKit          3D

 36 37  0  0  0  0  0  0  0  0999 V2000
   -5.4578    1.1707   -1.0280 C   0  0  0  0  0  0  0  0  0  0  0  0
   -4.8939    0.1084   -0.2247 N   0  0  0  0  0  0  0  0  0  0  0  0
   -5.7755   -0.8384    0.3932 C   0  0  0  0  0  0  0  0  0  0  0  0
   -3.4691    0.0861   -0.0988 C   0  0  0  0  0  0  0  0  0  0  0  0
   -2.6495   -0.0620   -1.1925 C   0  0  0  0  0  0  0  0  0  0  0  0
   -1.2781   -0.0896   -1.0448 C   0  0  0  0  0  0  0  0  0  0  0  0
   -0.6721    0.0272    0.1846 C   0  0  0  0  0  0  0  0  0  0  0  0
    0.8056   -0.0139    0.2129 C   0  0  0  0  0  0  0  0  0  0  0  0
    1.5310    0.0616    1.2801 C   0  0  0  0  0  0  0  0  0  0  0  0
    2.9357    0.0385    1.4929 C   0  0  0  0  0  0  0  0  0  0  0  0
    3.2219    0.1562    2.7794 O   0  0  0  0  0  0  0  0  0  0  0  0
    4.0921   -0.0797    0.6643 C   0  0  0  0  0  0  0  0  0  0  0  0
    5.3704   -0.0178    1.2587 C   0  0  0  0  0  0  0  0  0  0  0  0
    6.5197   -0.1325    0.5316 C   0  0  0  0  0  0  0  0  0  0  0  0
    6.5152   -0.3159   -0.8267 C   0  0  0  0  0  0  0  0  0  0  0  0
    8.0121   -0.4601   -1.7423 Cl  0  0  0  0  0  0  0  0  0  0  0  0
    5.2934   -0.3795   -1.4283 C   0  0  0  0  0  0  0  0  0  0  0  0
    4.1105   -0.2641   -0.6986 C   0  0  0  0  0  0  0  0  0  0  0  0
   -1.4690    0.1741    1.2775 C   0  0  0  0  0  0  0  0  0  0  0  0
   -2.8691    0.2032    1.1303 C   0  0  0  0  0  0  0  0  0  0  0  0
   -6.5355    0.9737   -1.2544 H   0  0  0  0  0  0  0  0  0  0  0  0
   -4.9407    1.2799   -2.0044 H   0  0  0  0  0  0  0  0  0  0  0  0
   -5.3854    2.1155   -0.4713 H   0  0  0  0  0  0  0  0  0  0  0  0
   -5.3412   -1.8388    0.5526 H   0  0  0  0  0  0  0  0  0  0  0  0
   -6.6554   -0.9749   -0.2896 H   0  0  0  0  0  0  0  0  0  0  0  0
   -6.1992   -0.4074    1.3300 H   0  0  0  0  0  0  0  0  0  0  0  0
   -3.0951   -0.1551   -2.1687 H   0  0  0  0  0  0  0  0  0  0  0  0
   -0.7112   -0.2104   -1.9760 H   0  0  0  0  0  0  0  0  0  0  0  0
    1.2992   -0.1066   -0.7323 H   0  0  0  0  0  0  0  0  0  0  0  0
    0.8715    0.1622    2.2061 H   0  0  0  0  0  0  0  0  0  0  0  0
    5.3854    0.1282    2.3339 H   0  0  0  0  0  0  0  0  0  0  0  0
    7.4886   -0.0773    1.0498 H   0  0  0  0  0  0  0  0  0  0  0  0
    5.2419   -0.5235   -2.5146 H   0  0  0  0  0  0  0  0  0  0  0  0
    3.1789   -0.3275   -1.2376 H   0  0  0  0  0  0  0  0  0  0  0  0
   -1.0439    0.2697    2.2635 H   0  0  0  0  0  0  0  0  0  0  0  0
   -3.4312    0.3198    2.0249 H   0  0  0  0  0  0  0  0  0  0  0  0
  1  2  1  0
  2  3  1  0
  2  4  1  0
  4  5  2  0
  5  6  1  0
  6  7  2  0
  7  8  1  0
  8  9  2  0
  9 10  1  0
 10 11  2  0
 10 12  1  0
 12 13  2  0
 13 14  1  0
 14 15  2  0
 15 16  1  0
 15 17  1  0
 17 18  2  0
  7 19  1  0
 19 20  2  0
 20  4  1  0
 18 12  1  0
  1 21  1  0
  1 22  1  0
  1 23  1  0
  3 24  1  0
  3 25  1  0
  3 26  1  0
  5 27  1  0
  6 28  1  0
  8 29  1  0
  9 30  1  0
 13 31  1  0
 14 32  1  0
 17 33  1  0
 18 34  1  0
 19 35  1  0
 20 36  1  0
M  END
