
     RDKit          3D

 26 28  0  0  0  0  0  0  0  0999 V2000
   -5.5697    0.4909   -0.2047 C   0  0  0  0  0  0  0  0  0  0  0  0
   -4.8258   -0.6070   -0.6401 C   0  0  0  0  0  0  0  0  0  0  0  0
   -3.4675   -0.5961   -0.6204 C   0  0  0  0  0  0  0  0  0  0  0  0
   -2.8054    0.5103   -0.1656 C   0  0  0  0  0  0  0  0  0  0  0  0
   -1.4056    0.5321   -0.1410 N   0  0  0  0  0  0  0  0  0  0  0  0
   -0.7137   -0.2335    0.6100 N   0  0  0  0  0  0  0  0  0  0  0  0
    0.7090   -0.1541    0.5805 C   0  0  0  0  0  0  0  0  0  0  0  0
    1.5875   -1.1285    0.6767 N   0  0  0  0  0  0  0  0  0  0  0  0
    2.8708   -0.8642    0.6285 C   0  0  0  0  0  0  0  0  0  0  0  0
    3.9124   -1.8082    0.7190 C   0  0  0  0  0  0  0  0  0  0  0  0
    5.2024   -1.3856    0.6530 C   0  0  0  0  0  0  0  0  0  0  0  0
    5.6048   -0.0676    0.4997 C   0  0  0  0  0  0  0  0  0  0  0  0
    4.5751    0.8459    0.4125 C   0  0  0  0  0  0  0  0  0  0  0  0
    3.2439    0.4412    0.4771 C   0  0  0  0  0  0  0  0  0  0  0  0
    1.7100    1.2183    0.4125 S   0  0  0  0  0  0  0  0  0  0  0  0
   -3.5127    1.5978    0.2661 C   0  0  0  0  0  0  0  0  0  0  0  0
   -4.8833    1.5947    0.2494 C   0  0  0  0  0  0  0  0  0  0  0  0
   -6.6466    0.4730   -0.2240 H   0  0  0  0  0  0  0  0  0  0  0  0
   -5.3434   -1.4893   -1.0027 H   0  0  0  0  0  0  0  0  0  0  0  0
   -2.8984   -1.4504   -0.9594 H   0  0  0  0  0  0  0  0  0  0  0  0
    3.7204   -2.8623    0.8397 H   0  0  0  0  0  0  0  0  0  0  0  0
    6.0225   -2.1092    0.7220 H   0  0  0  0  0  0  0  0  0  0  0  0
    6.6311    0.2259    0.4520 H   0  0  0  0  0  0  0  0  0  0  0  0
    4.7382    1.9049    0.2917 H   0  0  0  0  0  0  0  0  0  0  0  0
   -3.0049    2.4720    0.6253 H   0  0  0  0  0  0  0  0  0  0  0  0
   -5.4513    2.4490    0.5884 H   0  0  0  0  0  0  0  0  0  0  0  0
  1  2  2  0
  2  3  1  0
  3  4  2  0
  4  5  1  0
  5  6  2  0
  6  7  1  0
  7  8  2  0
  8  9  1  0
  9 10  2  0
 10 11  1  0
 11 12  2  0
 12 13  1  0
 13 14  2  0
 14 15  1  0
  4 16  1  0
 16 17  2  0
 17  1  1  0
 15  7  1  0
 14  9  1  0
  1 18  1  0
  2 19  1  0
  3 20  1  0
 10 21  1  0
 11 22  1  0
 12 23  1  0
 13 24  1  0
 16 25  1  0
 17 26  1  0
M  END
