
     RDKit          3D

 88 92  0  0  0  0  0  0  0  0999 V2000
   -9.7147    2.7005    0.1969 C   0  0  0  0  0  0  0  0  0  0  0  0
  -10.1295    1.7337    1.2579 C   0  0  0  0  0  0  0  0  0  0  0  0
   -9.1358    0.7168    1.6542 C   0  0  0  0  0  0  0  0  0  0  0  0
   -8.7139   -0.3663    0.7634 C   0  0  0  0  0  0  0  0  0  0  0  0
   -8.1881   -0.1351   -0.5271 N   0  0  0  0  0  0  0  0  0  0  0  0
   -8.9868    0.0399   -1.7132 C   0  0  0  0  0  0  0  0  0  0  0  0
   -9.5060   -1.1964   -2.3524 C   0  0  0  0  0  0  0  0  0  0  0  0
  -10.4190   -2.0920   -1.6230 C   0  0  0  0  0  0  0  0  0  0  0  0
  -11.6885   -1.4622   -1.1618 C   0  0  0  0  0  0  0  0  0  0  0  0
   -6.7390   -0.0640   -0.6667 C   0  0  0  0  0  0  0  0  0  0  0  0
   -5.9792   -0.0512    0.4678 C   0  0  0  0  0  0  0  0  0  0  0  0
   -4.5842   -0.0040    0.3607 C   0  0  0  0  0  0  0  0  0  0  0  0
   -3.9516    0.0304   -0.8445 C   0  0  0  0  0  0  0  0  0  0  0  0
   -2.5056    0.0675   -1.0424 C   0  0  0  0  0  0  0  0  0  0  0  0
   -1.6795    0.0273   -0.0289 C   0  0  0  0  0  0  0  0  0  0  0  0
   -0.2096    0.0622   -0.1614 C   0  0  0  0  0  0  0  0  0  0  0  0
    0.3884    0.1869   -1.3827 C   0  0  0  0  0  0  0  0  0  0  0  0
    1.7837    0.2073   -1.5024 C   0  0  0  0  0  0  0  0  0  0  0  0
    2.5820    0.1005   -0.3791 C   0  0  0  0  0  0  0  0  0  0  0  0
    3.9224    0.1114   -0.4490 N   0  0  0  0  0  0  0  0  0  0  0  0
    4.7013    0.0004    0.6703 C   0  0  0  0  0  0  0  0  0  0  0  0
    6.1488   -0.0013    0.4969 C   0  0  0  0  0  0  0  0  0  0  0  0
    6.7176    0.1501   -0.6823 C   0  0  0  0  0  0  0  0  0  0  0  0
    8.1564    0.1522   -0.8824 C   0  0  0  0  0  0  0  0  0  0  0  0
    8.6790    0.3282   -2.1742 C   0  0  0  0  0  0  0  0  0  0  0  0
   10.0352    0.3343   -2.4022 C   0  0  0  0  0  0  0  0  0  0  0  0
   10.9579    0.1704   -1.3922 C   0  0  0  0  0  0  0  0  0  0  0  0
   12.3611    0.1765   -1.6356 N   0  0  0  0  0  0  0  0  0  0  0  0
   12.8334    0.3531   -2.9903 C   0  0  0  0  0  0  0  0  0  0  0  0
   13.3072    0.0096   -0.5444 C   0  0  0  0  0  0  0  0  0  0  0  0
   10.4580   -0.0029   -0.1231 C   0  0  0  0  0  0  0  0  0  0  0  0
    9.0763   -0.0108    0.1217 C   0  0  0  0  0  0  0  0  0  0  0  0
    4.1316   -0.1233    1.8935 C   0  0  0  0  0  0  0  0  0  0  0  0
    4.9309   -0.2574    3.0933 C   0  0  0  0  0  0  0  0  0  0  0  0
    5.9358    0.6052    3.4508 C   0  0  0  0  0  0  0  0  0  0  0  0
    6.6848    0.4013    4.6129 C   0  0  0  0  0  0  0  0  0  0  0  0
    6.4437   -0.6708    5.4436 C   0  0  0  0  0  0  0  0  0  0  0  0
    5.4371   -1.5469    5.0996 C   0  0  0  0  0  0  0  0  0  0  0  0
    4.7027   -1.3407    3.9530 C   0  0  0  0  0  0  0  0  0  0  0  0
    2.7619   -0.1344    1.9602 N   0  0  0  0  0  0  0  0  0  0  0  0
    1.9913   -0.0268    0.8652 C   0  0  0  0  0  0  0  0  0  0  0  0
    0.6038   -0.0426    0.9427 C   0  0  0  0  0  0  0  0  0  0  0  0
   -4.7469    0.0167   -1.9781 C   0  0  0  0  0  0  0  0  0  0  0  0
   -6.1423   -0.0310   -1.8947 C   0  0  0  0  0  0  0  0  0  0  0  0
   -8.7282    2.4334   -0.1903 H   0  0  0  0  0  0  0  0  0  0  0  0
  -10.5059    2.8108   -0.5965 H   0  0  0  0  0  0  0  0  0  0  0  0
   -9.6570    3.7460    0.6272 H   0  0  0  0  0  0  0  0  0  0  0  0
  -10.4590    2.3574    2.1509 H   0  0  0  0  0  0  0  0  0  0  0  0
  -11.1039    1.2217    0.9645 H   0  0  0  0  0  0  0  0  0  0  0  0
   -8.2070    1.2386    2.1114 H   0  0  0  0  0  0  0  0  0  0  0  0
   -9.6227    0.1811    2.5641 H   0  0  0  0  0  0  0  0  0  0  0  0
   -8.0092   -1.0340    1.3864 H   0  0  0  0  0  0  0  0  0  0  0  0
   -9.6116   -1.0885    0.7124 H   0  0  0  0  0  0  0  0  0  0  0  0
   -9.8817    0.7104   -1.4658 H   0  0  0  0  0  0  0  0  0  0  0  0
   -8.4527    0.6440   -2.4691 H   0  0  0  0  0  0  0  0  0  0  0  0
   -8.6175   -1.8176   -2.7056 H   0  0  0  0  0  0  0  0  0  0  0  0
  -10.0117   -0.9614   -3.3460 H   0  0  0  0  0  0  0  0  0  0  0  0
  -10.7585   -2.9502   -2.3246 H   0  0  0  0  0  0  0  0  0  0  0  0
   -9.9594   -2.6674   -0.8009 H   0  0  0  0  0  0  0  0  0  0  0  0
  -11.7652   -0.3884   -1.5009 H   0  0  0  0  0  0  0  0  0  0  0  0
  -11.8316   -1.5345   -0.0608 H   0  0  0  0  0  0  0  0  0  0  0  0
  -12.5524   -1.9714   -1.6245 H   0  0  0  0  0  0  0  0  0  0  0  0
   -6.3715   -0.0687    1.4630 H   0  0  0  0  0  0  0  0  0  0  0  0
   -4.0207    0.0053    1.2676 H   0  0  0  0  0  0  0  0  0  0  0  0
   -2.0989    0.1307   -2.0662 H   0  0  0  0  0  0  0  0  0  0  0  0
   -2.0966   -0.0361    0.9827 H   0  0  0  0  0  0  0  0  0  0  0  0
   -0.1513    0.2760   -2.3068 H   0  0  0  0  0  0  0  0  0  0  0  0
    2.2382    0.3074   -2.4843 H   0  0  0  0  0  0  0  0  0  0  0  0
    6.8272   -0.1434    1.3226 H   0  0  0  0  0  0  0  0  0  0  0  0
    6.0489    0.2781   -1.5308 H   0  0  0  0  0  0  0  0  0  0  0  0
    7.9537    0.4572   -2.9656 H   0  0  0  0  0  0  0  0  0  0  0  0
   10.4287    0.4735   -3.4206 H   0  0  0  0  0  0  0  0  0  0  0  0
   12.6272   -0.5309   -3.6303 H   0  0  0  0  0  0  0  0  0  0  0  0
   12.3134    1.2463   -3.4013 H   0  0  0  0  0  0  0  0  0  0  0  0
   13.9251    0.6025   -2.9870 H   0  0  0  0  0  0  0  0  0  0  0  0
   13.1133    0.8418    0.1957 H   0  0  0  0  0  0  0  0  0  0  0  0
   13.1527   -0.9287    0.0023 H   0  0  0  0  0  0  0  0  0  0  0  0
   14.3290    0.1598   -0.8913 H   0  0  0  0  0  0  0  0  0  0  0  0
   11.1599   -0.1358    0.7039 H   0  0  0  0  0  0  0  0  0  0  0  0
    8.7606   -0.1507    1.1344 H   0  0  0  0  0  0  0  0  0  0  0  0
    6.1466    1.4701    2.8323 H   0  0  0  0  0  0  0  0  0  0  0  0
    7.4716    1.1124    4.8543 H   0  0  0  0  0  0  0  0  0  0  0  0
    7.0188   -0.8443    6.3530 H   0  0  0  0  0  0  0  0  0  0  0  0
    5.2490   -2.3973    5.7630 H   0  0  0  0  0  0  0  0  0  0  0  0
    3.9022   -2.0261    3.6688 H   0  0  0  0  0  0  0  0  0  0  0  0
    0.1188   -0.1417    1.9107 H   0  0  0  0  0  0  0  0  0  0  0  0
   -4.2962    0.0429   -2.9393 H   0  0  0  0  0  0  0  0  0  0  0  0
   -6.7268   -0.0529   -2.7831 H   0  0  0  0  0  0  0  0  0  0  0  0
  1  2  1  0
  2  3  1  0
  3  4  1  0
  4  5  1  0
  5  6  1  0
  6  7  1  0
  7  8  1  0
  8  9  1  0
  5 10  1  0
 10 11  2  0
 11 12  1  0
 12 13  2  0
 13 14  1  0
 14 15  2  0
 15 16  1  0
 16 17  2  0
 17 18  1  0
 18 19  2  0
 19 20  1  0
 20 21  2  0
 21 22  1  0
 22 23  2  0
 23 24  1  0
 24 25  2  0
 25 26  1  0
 26 27  2  0
 27 28  1  0
 28 29  1  0
 28 30  1  0
 27 31  1  0
 31 32  2  0
 21 33  1  0
 33 34  1  0
 34 35  2  0
 35 36  1  0
 36 37  2  0
 37 38  1  0
 38 39  2  0
 33 40  2  0
 40 41  1  0
 41 42  2  0
 13 43  1  0
 43 44  2  0
 44 10  1  0
 42 16  1  0
 41 19  1  0
 32 24  1  0
 39 34  1  0
  1 45  1  0
  1 46  1  0
  1 47  1  0
  2 48  1  0
  2 49  1  0
  3 50  1  0
  3 51  1  0
  4 52  1  0
  4 53  1  0
  6 54  1  0
  6 55  1  0
  7 56  1  0
  7 57  1  0
  8 58  1  0
  8 59  1  0
  9 60  1  0
  9 61  1  0
  9 62  1  0
 11 63  1  0
 12 64  1  0
 14 65  1  0
 15 66  1  0
 17 67  1  0
 18 68  1  0
 22 69  1  0
 23 70  1  0
 25 71  1  0
 26 72  1  0
 29 73  1  0
 29 74  1  0
 29 75  1  0
 30 76  1  0
 30 77  1  0
 30 78  1  0
 31 79  1  0
 32 80  1  0
 35 81  1  0
 36 82  1  0
 37 83  1  0
 38 84  1  0
 39 85  1  0
 42 86  1  0
 43 87  1  0
 44 88  1  0
M  END
