
     RDKit          3D

 44 45  0  0  0  0  0  0  0  0999 V2000
   -6.2706    2.8941    0.7602 C   0  0  0  0  0  0  0  0  0  0  0  0
   -6.1725    1.5234    0.5028 O   0  0  0  0  0  0  0  0  0  0  0  0
   -5.0093    0.8661    0.1805 C   0  0  0  0  0  0  0  0  0  0  0  0
   -3.8023    1.5047    0.0771 C   0  0  0  0  0  0  0  0  0  0  0  0
   -2.6356    0.7873   -0.2562 C   0  0  0  0  0  0  0  0  0  0  0  0
   -2.6450   -0.5484   -0.4860 C   0  0  0  0  0  0  0  0  0  0  0  0
   -1.5030   -1.3594   -0.7596 C   0  0  0  0  0  0  0  0  0  0  0  0
   -1.7579   -2.5779   -1.2411 O   0  0  0  0  0  0  0  0  0  0  0  0
   -0.0917   -1.1533   -0.6259 C   0  0  0  0  0  0  0  0  0  0  0  0
    0.5607   -0.1337   -0.1446 C   0  0  0  0  0  0  0  0  0  0  0  0
    2.0416   -0.0990   -0.0925 C   0  0  0  0  0  0  0  0  0  0  0  0
    2.6608    1.0355    0.4400 C   0  0  0  0  0  0  0  0  0  0  0  0
    4.0347    1.1206    0.5125 C   0  0  0  0  0  0  0  0  0  0  0  0
    4.8346    0.0898    0.0620 C   0  0  0  0  0  0  0  0  0  0  0  0
    6.2452    0.1763    0.1360 N   0  0  0  0  0  0  0  0  0  0  0  0
    6.8755    1.3585    0.6904 C   0  0  0  0  0  0  0  0  0  0  0  0
    7.0644   -0.9189   -0.3434 C   0  0  0  0  0  0  0  0  0  0  0  0
    4.2388   -1.0273   -0.4620 C   0  0  0  0  0  0  0  0  0  0  0  0
    2.8351   -1.1047   -0.5317 C   0  0  0  0  0  0  0  0  0  0  0  0
   -3.8904   -1.1969   -0.3788 C   0  0  0  0  0  0  0  0  0  0  0  0
   -5.0195   -0.4861   -0.0543 C   0  0  0  0  0  0  0  0  0  0  0  0
   -6.2512   -1.1440    0.0489 O   0  0  0  0  0  0  0  0  0  0  0  0
   -6.3226   -2.5319   -0.1813 C   0  0  0  0  0  0  0  0  0  0  0  0
   -6.1010    3.0699    1.8458 H   0  0  0  0  0  0  0  0  0  0  0  0
   -5.5925    3.5172    0.1522 H   0  0  0  0  0  0  0  0  0  0  0  0
   -7.3259    3.2002    0.5142 H   0  0  0  0  0  0  0  0  0  0  0  0
   -3.7640    2.5669    0.2561 H   0  0  0  0  0  0  0  0  0  0  0  0
   -1.7493    1.3872   -0.3562 H   0  0  0  0  0  0  0  0  0  0  0  0
    0.5782   -1.9932   -0.9898 H   0  0  0  0  0  0  0  0  0  0  0  0
    0.0088    0.6849    0.2530 H   0  0  0  0  0  0  0  0  0  0  0  0
    2.0522    1.8502    0.7966 H   0  0  0  0  0  0  0  0  0  0  0  0
    4.5342    1.9884    0.9205 H   0  0  0  0  0  0  0  0  0  0  0  0
    6.7206    1.4505    1.7781 H   0  0  0  0  0  0  0  0  0  0  0  0
    6.4954    2.2884    0.2206 H   0  0  0  0  0  0  0  0  0  0  0  0
    7.9642    1.3273    0.4761 H   0  0  0  0  0  0  0  0  0  0  0  0
    6.8127   -1.7993    0.3063 H   0  0  0  0  0  0  0  0  0  0  0  0
    8.1268   -0.6749   -0.3363 H   0  0  0  0  0  0  0  0  0  0  0  0
    6.7287   -1.1179   -1.3940 H   0  0  0  0  0  0  0  0  0  0  0  0
    4.8605   -1.8375   -0.8163 H   0  0  0  0  0  0  0  0  0  0  0  0
    2.4707   -2.0077   -0.9525 H   0  0  0  0  0  0  0  0  0  0  0  0
   -3.9243   -2.2606   -0.5570 H   0  0  0  0  0  0  0  0  0  0  0  0
   -5.7545   -3.0676    0.6141 H   0  0  0  0  0  0  0  0  0  0  0  0
   -7.3489   -2.8999   -0.1619 H   0  0  0  0  0  0  0  0  0  0  0  0
   -5.8124   -2.7469   -1.1566 H   0  0  0  0  0  0  0  0  0  0  0  0
  1  2  1  0
  2  3  1  0
  3  4  2  0
  4  5  1  0
  5  6  2  0
  6  7  1  0
  7  8  2  0
  7  9  1  0
  9 10  2  0
 10 11  1  0
 11 12  2  0
 12 13  1  0
 13 14  2  0
 14 15  1  0
 15 16  1  0
 15 17  1  0
 14 18  1  0
 18 19  2  0
  6 20  1  0
 20 21  2  0
 21 22  1  0
 22 23  1  0
 21  3  1  0
 19 11  1  0
  1 24  1  0
  1 25  1  0
  1 26  1  0
  4 27  1  0
  5 28  1  0
  9 29  1  0
 10 30  1  0
 12 31  1  0
 13 32  1  0
 16 33  1  0
 16 34  1  0
 16 35  1  0
 17 36  1  0
 17 37  1  0
 17 38  1  0
 18 39  1  0
 19 40  1  0
 20 41  1  0
 23 42  1  0
 23 43  1  0
 23 44  1  0
M  END
