
     RDKit          3D

 96102  0  0  0  0  0  0  0  0999 V2000
   -6.6001    2.3654    3.6567 C   0  0  0  0  0  0  0  0  0  0  0  0
   -5.2399    2.7295    3.1021 C   0  0  0  0  0  0  0  0  0  0  0  0
   -4.8791    1.8445    1.8969 C   0  0  0  0  0  0  0  0  0  0  0  0
   -3.5248    2.2782    1.4566 C   0  0  0  0  0  0  0  0  0  0  0  0
   -2.9858    1.5247    0.2524 C   0  0  0  0  0  0  0  0  0  0  0  0
   -3.8328    1.6850   -0.9471 C   0  0  0  0  0  0  0  0  0  0  0  0
   -3.4026    0.9102   -2.1866 C   0  0  0  0  0  0  0  0  0  0  0  0
   -3.4121   -0.5655   -1.9547 C   0  0  0  0  0  0  0  0  0  0  0  0
   -4.6786   -1.2138   -1.5723 C   0  0  0  0  0  0  0  0  0  0  0  0
   -4.3746   -2.7243   -1.3739 C   0  0  0  0  0  0  0  0  0  0  0  0
   -5.6561   -3.4190   -0.9718 C   0  0  0  0  0  0  0  0  0  0  0  0
   -5.4926   -4.8903   -0.7641 C   0  0  0  0  0  0  0  0  0  0  0  0
   -4.5047   -5.2170    0.3191 C   0  0  0  0  0  0  0  0  0  0  0  0
   -4.1853    1.4062   -3.3359 C   0  0  0  0  0  0  0  0  0  0  0  0
   -5.5561    1.3488   -3.6319 C   0  0  0  0  0  0  0  0  0  0  0  0
   -6.0582    1.9320   -4.7682 C   0  0  0  0  0  0  0  0  0  0  0  0
   -5.1819    2.5881   -5.6317 C   0  0  0  0  0  0  0  0  0  0  0  0
   -3.8412    2.6534   -5.3563 C   0  0  0  0  0  0  0  0  0  0  0  0
   -3.3346    2.0549   -4.1938 C   0  0  0  0  0  0  0  0  0  0  0  0
   -1.9861    1.9616   -3.6732 C   0  0  0  0  0  0  0  0  0  0  0  0
   -0.7474    2.4067   -4.1564 C   0  0  0  0  0  0  0  0  0  0  0  0
    0.4311    2.1457   -3.4773 C   0  0  0  0  0  0  0  0  0  0  0  0
    0.4313    1.4362   -2.2985 C   0  0  0  0  0  0  0  0  0  0  0  0
    1.6608    1.1474   -1.5469 C   0  0  0  0  0  0  0  0  0  0  0  0
    2.7526    1.9761   -1.4957 C   0  0  0  0  0  0  0  0  0  0  0  0
    3.8873    1.6305   -0.7513 C   0  0  0  0  0  0  0  0  0  0  0  0
    3.9535    0.4551   -0.0461 C   0  0  0  0  0  0  0  0  0  0  0  0
    5.1070    0.0494    0.7694 C   0  0  0  0  0  0  0  0  0  0  0  0
    5.4133   -1.3138    0.8949 C   0  0  0  0  0  0  0  0  0  0  0  0
    6.4633   -1.6909    1.6785 C   0  0  0  0  0  0  0  0  0  0  0  0
    6.7960   -3.1261    1.8259 C   0  0  0  0  0  0  0  0  0  0  0  0
    6.0857   -4.1085    1.1900 C   0  0  0  0  0  0  0  0  0  0  0  0
    6.4502   -5.4317    1.3688 C   0  0  0  0  0  0  0  0  0  0  0  0
    7.5185   -5.7311    2.1820 C   0  0  0  0  0  0  0  0  0  0  0  0
    8.2103   -4.7051    2.8065 C   0  0  0  0  0  0  0  0  0  0  0  0
    7.8261   -3.4537    2.6064 N   0  0  0  0  0  0  0  0  0  0  0  0
    7.2110   -0.7705    2.3345 N   0  0  0  0  0  0  0  0  0  0  0  0
    6.9629    0.5514    2.2500 C   0  0  0  0  0  0  0  0  0  0  0  0
    7.7756    1.5270    2.9895 C   0  0  0  0  0  0  0  0  0  0  0  0
    8.7913    1.0516    3.7957 C   0  0  0  0  0  0  0  0  0  0  0  0
    9.5981    1.8912    4.5443 C   0  0  0  0  0  0  0  0  0  0  0  0
    9.3391    3.2416    4.4484 C   0  0  0  0  0  0  0  0  0  0  0  0
    8.3139    3.6961    3.6320 C   0  0  0  0  0  0  0  0  0  0  0  0
    7.5621    2.8405    2.9270 N   0  0  0  0  0  0  0  0  0  0  0  0
    5.9023    0.9368    1.4582 C   0  0  0  0  0  0  0  0  0  0  0  0
    2.8473   -0.3831   -0.0995 C   0  0  0  0  0  0  0  0  0  0  0  0
    1.7349   -0.0378   -0.8331 C   0  0  0  0  0  0  0  0  0  0  0  0
   -0.7920    0.9979   -1.8231 C   0  0  0  0  0  0  0  0  0  0  0  0
   -1.9864    1.2666   -2.5130 C   0  0  0  0  0  0  0  0  0  0  0  0
   -6.5164    2.3609    4.7719 H   0  0  0  0  0  0  0  0  0  0  0  0
   -7.3803    3.1080    3.4200 H   0  0  0  0  0  0  0  0  0  0  0  0
   -6.9248    1.3583    3.3140 H   0  0  0  0  0  0  0  0  0  0  0  0
   -5.3344    3.7734    2.7347 H   0  0  0  0  0  0  0  0  0  0  0  0
   -4.4426    2.6870    3.8454 H   0  0  0  0  0  0  0  0  0  0  0  0
   -5.6779    2.0120    1.1516 H   0  0  0  0  0  0  0  0  0  0  0  0
   -4.8932    0.8066    2.3237 H   0  0  0  0  0  0  0  0  0  0  0  0
   -2.8276    2.1806    2.3122 H   0  0  0  0  0  0  0  0  0  0  0  0
   -3.5805    3.3578    1.2139 H   0  0  0  0  0  0  0  0  0  0  0  0
   -2.7413    0.5034    0.5586 H   0  0  0  0  0  0  0  0  0  0  0  0
   -1.9801    2.0384    0.0591 H   0  0  0  0  0  0  0  0  0  0  0  0
   -3.8830    2.7606   -1.2964 H   0  0  0  0  0  0  0  0  0  0  0  0
   -4.8762    1.4396   -0.6640 H   0  0  0  0  0  0  0  0  0  0  0  0
   -2.9859   -1.0514   -2.8838 H   0  0  0  0  0  0  0  0  0  0  0  0
   -2.6835   -0.7418   -1.1050 H   0  0  0  0  0  0  0  0  0  0  0  0
   -5.4495   -1.1795   -2.3741 H   0  0  0  0  0  0  0  0  0  0  0  0
   -5.0363   -0.8701   -0.5835 H   0  0  0  0  0  0  0  0  0  0  0  0
   -3.6808   -2.7735   -0.5157 H   0  0  0  0  0  0  0  0  0  0  0  0
   -4.0001   -3.1605   -2.3019 H   0  0  0  0  0  0  0  0  0  0  0  0
   -5.9745   -2.9940    0.0263 H   0  0  0  0  0  0  0  0  0  0  0  0
   -6.4802   -3.1951   -1.6548 H   0  0  0  0  0  0  0  0  0  0  0  0
   -6.4713   -5.3802   -0.5075 H   0  0  0  0  0  0  0  0  0  0  0  0
   -5.0989   -5.3033   -1.7289 H   0  0  0  0  0  0  0  0  0  0  0  0
   -3.6686   -5.7865   -0.1122 H   0  0  0  0  0  0  0  0  0  0  0  0
   -4.1141   -4.2823    0.7573 H   0  0  0  0  0  0  0  0  0  0  0  0
   -5.0032   -5.7738    1.1564 H   0  0  0  0  0  0  0  0  0  0  0  0
   -6.2323    0.8598   -2.9572 H   0  0  0  0  0  0  0  0  0  0  0  0
   -7.1235    1.8854   -4.9956 H   0  0  0  0  0  0  0  0  0  0  0  0
   -5.5937    3.0419   -6.5221 H   0  0  0  0  0  0  0  0  0  0  0  0
   -3.1240    3.1469   -5.9901 H   0  0  0  0  0  0  0  0  0  0  0  0
   -0.7784    2.9641   -5.0915 H   0  0  0  0  0  0  0  0  0  0  0  0
    1.3763    2.4937   -3.8582 H   0  0  0  0  0  0  0  0  0  0  0  0
    2.6961    2.8966   -2.0509 H   0  0  0  0  0  0  0  0  0  0  0  0
    4.7324    2.3044   -0.7299 H   0  0  0  0  0  0  0  0  0  0  0  0
    4.7860   -1.9930    0.3483 H   0  0  0  0  0  0  0  0  0  0  0  0
    5.2384   -3.8761    0.5440 H   0  0  0  0  0  0  0  0  0  0  0  0
    5.9109   -6.2354    0.8813 H   0  0  0  0  0  0  0  0  0  0  0  0
    7.8274   -6.7620    2.3404 H   0  0  0  0  0  0  0  0  0  0  0  0
    9.0600   -4.9608    3.4524 H   0  0  0  0  0  0  0  0  0  0  0  0
    8.9922   -0.0107    3.8685 H   0  0  0  0  0  0  0  0  0  0  0  0
   10.4014    1.4843    5.1796 H   0  0  0  0  0  0  0  0  0  0  0  0
    9.9495    3.9469    5.0214 H   0  0  0  0  0  0  0  0  0  0  0  0
    8.1527    4.7848    3.5959 H   0  0  0  0  0  0  0  0  0  0  0  0
    5.6956    2.0041    1.3839 H   0  0  0  0  0  0  0  0  0  0  0  0
    2.8894   -1.3151    0.4564 H   0  0  0  0  0  0  0  0  0  0  0  0
    0.8693   -0.7188   -0.8645 H   0  0  0  0  0  0  0  0  0  0  0  0
   -0.7933    0.4165   -0.9123 H   0  0  0  0  0  0  0  0  0  0  0  0
  1  2  1  0
  2  3  1  0
  3  4  1  0
  4  5  1  0
  5  6  1  0
  6  7  1  0
  7  8  1  0
  8  9  1  0
  9 10  1  0
 10 11  1  0
 11 12  1  0
 12 13  1  0
  7 14  1  0
 14 15  2  0
 15 16  1  0
 16 17  2  0
 17 18  1  0
 18 19  2  0
 19 20  1  0
 20 21  2  0
 21 22  1  0
 22 23  2  0
 23 24  1  0
 24 25  2  0
 25 26  1  0
 26 27  2  0
 27 28  1  0
 28 29  2  0
 29 30  1  0
 30 31  1  0
 31 32  2  0
 32 33  1  0
 33 34  2  0
 34 35  1  0
 35 36  2  0
 30 37  2  0
 37 38  1  0
 38 39  1  0
 39 40  2  0
 40 41  1  0
 41 42  2  0
 42 43  1  0
 43 44  2  0
 38 45  2  0
 27 46  1  0
 46 47  2  0
 23 48  1  0
 48 49  2  0
 49  7  1  0
 19 14  1  0
 49 20  1  0
 47 24  1  0
 45 28  1  0
 36 31  1  0
 44 39  1  0
  1 50  1  0
  1 51  1  0
  1 52  1  0
  2 53  1  0
  2 54  1  0
  3 55  1  0
  3 56  1  0
  4 57  1  0
  4 58  1  0
  5 59  1  0
  5 60  1  0
  6 61  1  0
  6 62  1  0
  8 63  1  0
  8 64  1  0
  9 65  1  0
  9 66  1  0
 10 67  1  0
 10 68  1  0
 11 69  1  0
 11 70  1  0
 12 71  1  0
 12 72  1  0
 13 73  1  0
 13 74  1  0
 13 75  1  0
 15 76  1  0
 16 77  1  0
 17 78  1  0
 18 79  1  0
 21 80  1  0
 22 81  1  0
 25 82  1  0
 26 83  1  0
 29 84  1  0
 32 85  1  0
 33 86  1  0
 34 87  1  0
 35 88  1  0
 40 89  1  0
 41 90  1  0
 42 91  1  0
 43 92  1  0
 45 93  1  0
 46 94  1  0
 47 95  1  0
 48 96  1  0
M  END
