
     RDKit          3D

 46 49  0  0  0  0  0  0  0  0999 V2000
    7.0175   -1.0127    0.7028 C   0  0  0  0  0  0  0  0  0  0  0  0
    6.4213    0.2081    0.2162 N   0  0  0  0  0  0  0  0  0  0  0  0
    7.2647    1.2741   -0.2622 C   0  0  0  0  0  0  0  0  0  0  0  0
    5.0160    0.3919    0.1768 C   0  0  0  0  0  0  0  0  0  0  0  0
    4.2965   -0.5735   -0.5151 C   0  0  0  0  0  0  0  0  0  0  0  0
    2.9464   -0.4601   -0.6083 C   0  0  0  0  0  0  0  0  0  0  0  0
    2.2302    0.5954   -0.0479 C   0  0  0  0  0  0  0  0  0  0  0  0
    0.7933    0.5978   -0.0711 C   0  0  0  0  0  0  0  0  0  0  0  0
    0.2508   -0.5928   -0.1004 N   0  0  0  0  0  0  0  0  0  0  0  0
   -1.1474   -0.8264   -0.1336 C   0  0  0  0  0  0  0  0  0  0  0  0
   -1.6493   -2.0928    0.0724 C   0  0  0  0  0  0  0  0  0  0  0  0
   -3.0013   -2.2804    0.2521 C   0  0  0  0  0  0  0  0  0  0  0  0
   -3.8803   -1.1814    0.2214 C   0  0  0  0  0  0  0  0  0  0  0  0
   -5.2185   -1.3406    0.3670 C   0  0  0  0  0  0  0  0  0  0  0  0
   -5.8121   -2.6446    0.6737 C   0  0  0  0  0  0  0  0  0  0  0  0
   -5.5523   -3.5763   -0.3058 F   0  0  0  0  0  0  0  0  0  0  0  0
   -5.5207   -3.0961    1.9513 F   0  0  0  0  0  0  0  0  0  0  0  0
   -7.2115   -2.4521    0.7053 F   0  0  0  0  0  0  0  0  0  0  0  0
   -5.9823   -0.1785    0.2596 C   0  0  0  0  0  0  0  0  0  0  0  0
   -5.3991    1.0716    0.0223 C   0  0  0  0  0  0  0  0  0  0  0  0
   -6.2991    2.2770   -0.1250 C   0  0  0  0  0  0  0  0  0  0  0  0
   -6.2627    2.7011   -1.4461 F   0  0  0  0  0  0  0  0  0  0  0  0
   -5.8696    3.3233    0.6468 F   0  0  0  0  0  0  0  0  0  0  0  0
   -7.5788    1.9310    0.2087 F   0  0  0  0  0  0  0  0  0  0  0  0
   -4.0839    1.1550   -0.1006 N   0  0  0  0  0  0  0  0  0  0  0  0
   -3.3012    0.0395    0.0007 C   0  0  0  0  0  0  0  0  0  0  0  0
   -1.9854    0.2374   -0.1700 N   0  0  0  0  0  4  0  0  0  0  0  0
   -1.4073    1.6104   -0.5955 B   0  0  0  0  0  4  0  0  0  0  0  0
   -1.1991    1.4475   -2.0813 F   0  0  0  0  0  0  0  0  0  0  0  0
   -2.2288    2.7327   -0.3539 F   0  0  0  0  0  0  0  0  0  0  0  0
    0.0068    1.7104   -0.0622 O   0  0  0  0  0  0  0  0  0  0  0  0
    2.9534    1.5576    0.6355 C   0  0  0  0  0  0  0  0  0  0  0  0
    4.3273    1.4389    0.7388 C   0  0  0  0  0  0  0  0  0  0  0  0
    6.3989   -1.8745    0.3445 H   0  0  0  0  0  0  0  0  0  0  0  0
    7.0843   -1.0725    1.8197 H   0  0  0  0  0  0  0  0  0  0  0  0
    8.0576   -1.1764    0.2817 H   0  0  0  0  0  0  0  0  0  0  0  0
    7.4245    2.0014    0.5408 H   0  0  0  0  0  0  0  0  0  0  0  0
    6.8237    1.7109   -1.1956 H   0  0  0  0  0  0  0  0  0  0  0  0
    8.2739    0.8659   -0.5635 H   0  0  0  0  0  0  0  0  0  0  0  0
    4.8422   -1.4036   -0.9842 H   0  0  0  0  0  0  0  0  0  0  0  0
    2.3776   -1.2376   -1.1719 H   0  0  0  0  0  0  0  0  0  0  0  0
   -1.0095   -2.9490    0.0996 H   0  0  0  0  0  0  0  0  0  0  0  0
   -3.4744   -3.2265    0.4383 H   0  0  0  0  0  0  0  0  0  0  0  0
   -7.0567   -0.2703    0.3527 H   0  0  0  0  0  0  0  0  0  0  0  0
    2.4540    2.4271    1.1149 H   0  0  0  0  0  0  0  0  0  0  0  0
    4.8703    2.2130    1.3027 H   0  0  0  0  0  0  0  0  0  0  0  0
  1  2  1  0
  2  3  1  0
  2  4  1  0
  4  5  2  0
  5  6  1  0
  6  7  2  0
  7  8  1  0
  8  9  2  0
  9 10  1  0
 10 11  2  0
 11 12  1  0
 12 13  2  0
 13 14  1  0
 14 15  1  0
 15 16  1  0
 15 17  1  0
 15 18  1  0
 14 19  2  0
 19 20  1  0
 20 21  1  0
 21 22  1  0
 21 23  1  0
 21 24  1  0
 20 25  2  0
 25 26  1  0
 26 27  2  0
 27 28  1  0
 28 29  1  0
 28 30  1  0
 28 31  1  0
  7 32  1  0
 32 33  2  0
 33  4  1  0
 31  8  1  0
 27 10  1  0
 26 13  1  0
  1 34  1  0
  1 35  1  0
  1 36  1  0
  3 37  1  0
  3 38  1  0
  3 39  1  0
  5 40  1  0
  6 41  1  0
 11 42  1  0
 12 43  1  0
 19 44  1  0
 32 45  1  0
 33 46  1  0
M  CHG  2  27   1  28  -1
M  END
