
     RDKit          3D

 63 66  0  0  0  0  0  0  0  0999 V2000
   -3.1721    5.1574   -0.3740 C   0  0  0  0  0  0  0  0  0  0  0  0
   -2.4437    4.6172    0.8649 C   0  0  0  0  0  0  0  0  0  0  0  0
   -2.1829    3.1754    0.6142 C   0  0  0  0  0  0  0  0  0  0  0  0
   -0.9932    2.5535    0.5153 C   0  0  0  0  0  0  0  0  0  0  0  0
    0.2859    3.2755    0.6497 C   0  0  0  0  0  0  0  0  0  0  0  0
   -1.3025    1.1442    0.2627 C   0  0  0  0  0  0  0  0  0  0  0  0
   -0.4995    0.0827    0.0362 C   0  0  0  0  0  0  0  0  0  0  0  0
    0.8860    0.3224    0.0255 C   0  0  0  0  0  0  0  0  0  0  0  0
    1.9224   -0.3719   -0.3584 C   0  0  0  0  0  0  0  0  0  0  0  0
    3.2982    0.0936   -0.2465 C   0  0  0  0  0  0  0  0  0  0  0  0
    3.6718    1.3143    0.2514 C   0  0  0  0  0  0  0  0  0  0  0  0
    5.0172    1.6266    0.3064 C   0  0  0  0  0  0  0  0  0  0  0  0
    6.0202    0.7853   -0.1099 C   0  0  0  0  0  0  0  0  0  0  0  0
    7.3615    1.1479   -0.0333 O   0  0  0  0  0  0  0  0  0  0  0  0
    8.3359    0.2192   -0.4851 C   0  0  0  0  0  0  0  0  0  0  0  0
    5.6156   -0.4464   -0.6107 C   0  0  0  0  0  0  0  0  0  0  0  0
    4.2939   -0.7912   -0.6809 C   0  0  0  0  0  0  0  0  0  0  0  0
   -1.1195   -1.2535   -0.0778 C   0  0  0  0  0  0  0  0  0  0  0  0
   -0.6163   -2.5439   -0.0267 C   0  0  0  0  0  0  0  0  0  0  0  0
    0.7638   -3.0126    0.1294 C   0  0  0  0  0  0  0  0  0  0  0  0
   -1.6912   -3.4569    0.0673 C   0  0  0  0  0  0  0  0  0  0  0  0
   -1.6240   -4.9302    0.1346 C   0  0  0  0  0  0  0  0  0  0  0  0
   -1.3238   -5.4614   -1.2514 C   0  0  0  0  0  0  0  0  0  0  0  0
   -2.8099   -2.7029    0.0802 C   0  0  0  0  0  0  0  0  0  0  0  0
   -4.2225   -3.2208    0.1732 C   0  0  0  0  0  0  0  0  0  0  0  0
   -2.4551   -1.4107   -0.0038 N   0  0  0  0  0  0  0  0  0  0  0  0
   -3.4274   -0.2405   -0.0135 B   0  0  0  0  0  4  0  0  0  0  0  0
   -4.4039   -0.4608    1.0392 F   0  0  0  0  0  0  0  0  0  0  0  0
   -4.1161   -0.1961   -1.3057 F   0  0  0  0  0  0  0  0  0  0  0  0
   -2.7105    1.0707    0.2331 N   0  0  0  0  0  4  0  0  0  0  0  0
   -3.2602    2.2244    0.4322 C   0  0  0  0  0  0  0  0  0  0  0  0
   -4.7309    2.5230    0.4692 C   0  0  0  0  0  0  0  0  0  0  0  0
   -3.7074    4.3736   -0.9066 H   0  0  0  0  0  0  0  0  0  0  0  0
   -3.8328    5.9885   -0.0836 H   0  0  0  0  0  0  0  0  0  0  0  0
   -2.3536    5.5431   -1.0489 H   0  0  0  0  0  0  0  0  0  0  0  0
   -3.1586    4.6890    1.7402 H   0  0  0  0  0  0  0  0  0  0  0  0
   -1.5630    5.2138    1.0389 H   0  0  0  0  0  0  0  0  0  0  0  0
    0.0636    4.3962    0.6371 H   0  0  0  0  0  0  0  0  0  0  0  0
    0.9387    3.2127   -0.2745 H   0  0  0  0  0  0  0  0  0  0  0  0
    0.7972    3.1425    1.5959 H   0  0  0  0  0  0  0  0  0  0  0  0
    1.2164    1.2719    0.5376 H   0  0  0  0  0  0  0  0  0  0  0  0
    1.7461   -1.2482   -0.9242 H   0  0  0  0  0  0  0  0  0  0  0  0
    2.9298    2.0310    0.5969 H   0  0  0  0  0  0  0  0  0  0  0  0
    5.2686    2.6167    0.7134 H   0  0  0  0  0  0  0  0  0  0  0  0
    8.1840    0.0923   -1.5758 H   0  0  0  0  0  0  0  0  0  0  0  0
    9.3447    0.6602   -0.2782 H   0  0  0  0  0  0  0  0  0  0  0  0
    8.2042   -0.7855   -0.0376 H   0  0  0  0  0  0  0  0  0  0  0  0
    6.3955   -1.1197   -0.9431 H   0  0  0  0  0  0  0  0  0  0  0  0
    4.0268   -1.7576   -1.0764 H   0  0  0  0  0  0  0  0  0  0  0  0
    1.3122   -2.4876    0.9314 H   0  0  0  0  0  0  0  0  0  0  0  0
    0.6998   -4.0717    0.6426 H   0  0  0  0  0  0  0  0  0  0  0  0
    1.3075   -3.2688   -0.7639 H   0  0  0  0  0  0  0  0  0  0  0  0
   -2.6036   -5.3061    0.4818 H   0  0  0  0  0  0  0  0  0  0  0  0
   -0.8855   -5.3070    0.8754 H   0  0  0  0  0  0  0  0  0  0  0  0
   -2.1748   -5.2048   -1.8960 H   0  0  0  0  0  0  0  0  0  0  0  0
   -0.4495   -4.8694   -1.6225 H   0  0  0  0  0  0  0  0  0  0  0  0
   -1.1275   -6.5338   -1.2349 H   0  0  0  0  0  0  0  0  0  0  0  0
   -4.5321   -3.0729    1.2144 H   0  0  0  0  0  0  0  0  0  0  0  0
   -4.2649   -4.2734   -0.1145 H   0  0  0  0  0  0  0  0  0  0  0  0
   -4.8150   -2.5497   -0.4959 H   0  0  0  0  0  0  0  0  0  0  0  0
   -5.2444    1.7652    1.1266 H   0  0  0  0  0  0  0  0  0  0  0  0
   -4.9069    3.4967    0.9688 H   0  0  0  0  0  0  0  0  0  0  0  0
   -5.1828    2.5291   -0.5310 H   0  0  0  0  0  0  0  0  0  0  0  0
  1  2  1  0
  2  3  1  0
  3  4  2  0
  4  5  1  0
  4  6  1  0
  6  7  2  0
  7  8  1  0
  8  9  2  0
  9 10  1  0
 10 11  2  0
 11 12  1  0
 12 13  2  0
 13 14  1  0
 14 15  1  0
 13 16  1  0
 16 17  2  0
  7 18  1  0
 18 19  2  0
 19 20  1  0
 19 21  1  0
 21 22  1  0
 22 23  1  0
 21 24  2  0
 24 25  1  0
 24 26  1  0
 26 27  1  0
 27 28  1  0
 27 29  1  0
 27 30  1  0
 30 31  2  0
 31 32  1  0
 31  3  1  0
 30  6  1  0
 17 10  1  0
 26 18  1  0
  1 33  1  0
  1 34  1  0
  1 35  1  0
  2 36  1  0
  2 37  1  0
  5 38  1  0
  5 39  1  0
  5 40  1  0
  8 41  1  0
  9 42  1  0
 11 43  1  0
 12 44  1  0
 15 45  1  0
 15 46  1  0
 15 47  1  0
 16 48  1  0
 17 49  1  0
 20 50  1  0
 20 51  1  0
 20 52  1  0
 22 53  1  0
 22 54  1  0
 23 55  1  0
 23 56  1  0
 23 57  1  0
 25 58  1  0
 25 59  1  0
 25 60  1  0
 32 61  1  0
 32 62  1  0
 32 63  1  0
M  CHG  2  27  -1  30   1
M  END
