
     RDKit          3D

 54 60  0  0  0  0  0  0  0  0999 V2000
   -4.5192   -3.3924   -0.2456 C   0  0  0  0  0  0  0  0  0  0  0  0
   -3.3405   -2.4986   -0.1697 C   0  0  0  0  0  0  0  0  0  0  0  0
   -2.7551   -2.0041   -1.3157 C   0  0  0  0  0  0  0  0  0  0  0  0
   -1.6619   -1.1727   -1.2972 C   0  0  0  0  0  0  0  0  0  0  0  0
   -1.0854   -0.7860   -0.0708 C   0  0  0  0  0  0  0  0  0  0  0  0
    0.0246    0.0827   -0.0680 N   0  0  0  0  0  0  0  0  0  0  0  0
   -0.0274    1.4285   -0.2137 C   0  0  0  0  0  0  0  0  0  0  0  0
   -1.1560    2.3065   -0.4987 C   0  0  0  0  0  0  0  0  0  0  0  0
   -1.0673    3.1501   -1.6267 C   0  0  0  0  0  0  0  0  0  0  0  0
   -2.0498    4.0450   -1.9680 C   0  0  0  0  0  0  0  0  0  0  0  0
   -3.1912    4.1582   -1.2017 C   0  0  0  0  0  0  0  0  0  0  0  0
   -3.3016    3.3484   -0.0935 C   0  0  0  0  0  0  0  0  0  0  0  0
   -4.3110    3.3023    0.8373 C   0  0  0  0  0  0  0  0  0  0  0  0
   -3.9152    2.3619    1.7548 C   0  0  0  0  0  0  0  0  0  0  0  0
   -2.7075    1.8613    1.3833 N   0  0  0  0  0  0  0  0  0  0  0  0
   -2.2910    2.4392    0.2443 C   0  0  0  0  0  0  0  0  0  0  0  0
    1.2349    1.9232   -0.1924 N   0  0  0  0  0  0  0  0  0  0  0  0
    2.0877    0.9180   -0.0360 C   0  0  0  0  0  0  0  0  0  0  0  0
    3.4662    0.8905    0.0472 C   0  0  0  0  0  0  0  0  0  0  0  0
    4.1220    2.1154   -0.0393 C   0  0  0  0  0  0  0  0  0  0  0  0
    5.4980    2.1155    0.0429 C   0  0  0  0  0  0  0  0  0  0  0  0
    6.1535    0.9224    0.2045 C   0  0  0  0  0  0  0  0  0  0  0  0
    5.4784   -0.3033    0.2900 C   0  0  0  0  0  0  0  0  0  0  0  0
    4.1134   -0.3069    0.2087 C   0  0  0  0  0  0  0  0  0  0  0  0
    3.4094   -1.4920    0.2873 C   0  0  0  0  0  0  0  0  0  0  0  0
    4.0729   -2.6810    0.4259 C   0  0  0  0  0  0  0  0  0  0  0  0
    3.3708   -3.8613    0.4816 C   0  0  0  0  0  0  0  0  0  0  0  0
    2.0020   -3.8276    0.3958 C   0  0  0  0  0  0  0  0  0  0  0  0
    1.3070   -2.6412    0.2554 C   0  0  0  0  0  0  0  0  0  0  0  0
    2.0055   -1.4566    0.2008 C   0  0  0  0  0  0  0  0  0  0  0  0
    1.3375   -0.2431    0.0415 C   0  0  0  0  0  0  0  0  0  0  0  0
   -1.7089   -1.3083    1.0399 C   0  0  0  0  0  0  0  0  0  0  0  0
   -2.7911   -2.1320    1.0395 C   0  0  0  0  0  0  0  0  0  0  0  0
   -5.4186   -2.8587   -0.6378 H   0  0  0  0  0  0  0  0  0  0  0  0
   -4.3161   -4.2903   -0.8951 H   0  0  0  0  0  0  0  0  0  0  0  0
   -4.7458   -3.7922    0.7547 H   0  0  0  0  0  0  0  0  0  0  0  0
   -3.2202   -2.3179   -2.2616 H   0  0  0  0  0  0  0  0  0  0  0  0
   -1.2183   -0.7957   -2.2202 H   0  0  0  0  0  0  0  0  0  0  0  0
   -0.1723    3.0598   -2.2248 H   0  0  0  0  0  0  0  0  0  0  0  0
   -1.9787    4.6896   -2.8337 H   0  0  0  0  0  0  0  0  0  0  0  0
   -3.9845    4.8515   -1.4435 H   0  0  0  0  0  0  0  0  0  0  0  0
   -5.2307    3.8513    0.8948 H   0  0  0  0  0  0  0  0  0  0  0  0
   -4.4334    2.0331    2.6419 H   0  0  0  0  0  0  0  0  0  0  0  0
   -2.1495    1.1588    1.9053 H   0  0  0  0  0  0  0  0  0  0  0  0
    3.5513    3.0218   -0.1665 H   0  0  0  0  0  0  0  0  0  0  0  0
    6.0408    3.0565   -0.0213 H   0  0  0  0  0  0  0  0  0  0  0  0
    7.2316    0.8937    0.2719 H   0  0  0  0  0  0  0  0  0  0  0  0
    6.0258   -1.2025    0.4157 H   0  0  0  0  0  0  0  0  0  0  0  0
    5.1342   -2.7695    0.4973 H   0  0  0  0  0  0  0  0  0  0  0  0
    3.8959   -4.8219    0.5934 H   0  0  0  0  0  0  0  0  0  0  0  0
    1.4650   -4.7649    0.4410 H   0  0  0  0  0  0  0  0  0  0  0  0
    0.2562   -2.7061    0.1713 H   0  0  0  0  0  0  0  0  0  0  0  0
   -1.2910   -1.0421    2.0239 H   0  0  0  0  0  0  0  0  0  0  0  0
   -3.2455   -2.5167    1.9494 H   0  0  0  0  0  0  0  0  0  0  0  0
  1  2  1  0
  2  3  2  0
  3  4  1  0
  4  5  2  0
  5  6  1  0
  6  7  1  0
  7  8  1  0
  8  9  2  0
  9 10  1  0
 10 11  2  0
 11 12  1  0
 12 13  1  0
 13 14  2  0
 14 15  1  0
 15 16  1  0
  7 17  2  0
 17 18  1  0
 18 19  2  0
 19 20  1  0
 20 21  2  0
 21 22  1  0
 22 23  2  0
 23 24  1  0
 24 25  2  0
 25 26  1  0
 26 27  2  0
 27 28  1  0
 28 29  2  0
 29 30  1  0
 30 31  2  0
  5 32  1  0
 32 33  2  0
 33  2  1  0
 31  6  1  0
 16  8  1  0
 31 18  1  0
 16 12  2  0
 24 19  1  0
 30 25  1  0
  1 34  1  0
  1 35  1  0
  1 36  1  0
  3 37  1  0
  4 38  1  0
  9 39  1  0
 10 40  1  0
 11 41  1  0
 13 42  1  0
 14 43  1  0
 15 44  1  0
 20 45  1  0
 21 46  1  0
 22 47  1  0
 23 48  1  0
 26 49  1  0
 27 50  1  0
 28 51  1  0
 29 52  1  0
 32 53  1  0
 33 54  1  0
M  END
