
     RDKit          3D

 33 34  0  0  0  0  0  0  0  0999 V2000
    4.2408    0.6231    0.3826 C   0  0  0  0  0  0  0  0  0  0  0  0
    3.5359    1.9124   -0.0564 C   0  0  0  0  0  0  0  0  0  0  0  0
    2.1760    1.8090    0.3748 N   0  0  0  0  0  0  0  0  0  0  0  0
    1.3131    0.7718   -0.1162 C   0  0  0  0  0  0  0  0  0  0  0  0
    1.7119   -0.1451   -1.0612 C   0  0  0  0  0  0  0  0  0  0  0  0
    0.8394   -1.1221   -1.4931 C   0  0  0  0  0  0  0  0  0  0  0  0
   -0.4702   -1.2310   -1.0039 C   0  0  0  0  0  0  0  0  0  0  0  0
   -0.8754   -0.3299   -0.0695 C   0  0  0  0  0  0  0  0  0  0  0  0
    0.0369    0.6650    0.3597 C   0  0  0  0  0  0  0  0  0  0  0  0
   -2.2191   -0.3718    0.4907 C   0  0  0  0  0  0  0  0  0  0  0  0
   -2.2355   -0.3200    2.0063 C   0  0  0  0  0  0  0  0  0  0  0  0
   -2.8870    0.9520    0.0446 C   0  0  0  0  0  0  0  0  0  0  0  0
   -3.0355   -1.4460   -0.0472 C   0  0  0  0  0  0  0  0  0  0  0  0
   -4.2365   -1.5259    0.4184 O   0  0  0  0  0  0  0  0  0  0  0  0
   -2.5610   -2.3789   -1.0389 C   0  0  0  0  0  0  0  0  0  0  0  0
   -1.3366   -2.3104   -1.5241 C   0  0  0  0  0  0  0  0  0  0  0  0
    4.8349    0.2453   -0.4653 H   0  0  0  0  0  0  0  0  0  0  0  0
    4.9162    0.8901    1.2263 H   0  0  0  0  0  0  0  0  0  0  0  0
    3.5146   -0.1282    0.7731 H   0  0  0  0  0  0  0  0  0  0  0  0
    4.0076    2.7843    0.4387 H   0  0  0  0  0  0  0  0  0  0  0  0
    3.6400    2.0110   -1.1580 H   0  0  0  0  0  0  0  0  0  0  0  0
    1.8229    2.5163    1.0643 H   0  0  0  0  0  0  0  0  0  0  0  0
    2.6937   -0.1106   -1.4708 H   0  0  0  0  0  0  0  0  0  0  0  0
    1.1339   -1.8643   -2.2453 H   0  0  0  0  0  0  0  0  0  0  0  0
   -0.3087    1.3632    1.0978 H   0  0  0  0  0  0  0  0  0  0  0  0
   -3.2372   -0.6822    2.3211 H   0  0  0  0  0  0  0  0  0  0  0  0
   -2.1328    0.7153    2.3350 H   0  0  0  0  0  0  0  0  0  0  0  0
   -1.4933   -0.9770    2.4707 H   0  0  0  0  0  0  0  0  0  0  0  0
   -3.5092    0.7796   -0.8572 H   0  0  0  0  0  0  0  0  0  0  0  0
   -3.5462    1.3412    0.8282 H   0  0  0  0  0  0  0  0  0  0  0  0
   -2.1344    1.7185   -0.1742 H   0  0  0  0  0  0  0  0  0  0  0  0
   -3.2436   -3.1624   -1.3928 H   0  0  0  0  0  0  0  0  0  0  0  0
   -0.9554   -2.9920   -2.2641 H   0  0  0  0  0  0  0  0  0  0  0  0
  1  2  1  0
  2  3  1  0
  3  4  1  0
  4  5  2  0
  5  6  1  0
  6  7  2  0
  7  8  1  0
  8  9  2  0
  8 10  1  0
 10 11  1  0
 10 12  1  0
 10 13  1  0
 13 14  2  0
 13 15  1  0
 15 16  2  0
  9  4  1  0
 16  7  1  0
  1 17  1  0
  1 18  1  0
  1 19  1  0
  2 20  1  0
  2 21  1  0
  3 22  1  0
  5 23  1  0
  6 24  1  0
  9 25  1  0
 11 26  1  0
 11 27  1  0
 11 28  1  0
 12 29  1  0
 12 30  1  0
 12 31  1  0
 15 32  1  0
 16 33  1  0
M  END
