
     RDKit          3D

 30 32  0  0  0  0  0  0  0  0999 V2000
   -3.2776   -1.9338    1.4575 C   0  0  0  0  0  0  0  0  0  0  0  0
   -2.4411   -0.9884    0.8258 O   0  0  0  0  0  0  0  0  0  0  0  0
   -3.0326    0.0355    0.1166 C   0  0  0  0  0  0  0  0  0  0  0  0
   -4.4158    0.1221    0.0343 C   0  0  0  0  0  0  0  0  0  0  0  0
   -5.0029    1.1453   -0.6743 C   0  0  0  0  0  0  0  0  0  0  0  0
   -4.2185    2.0708   -1.2933 C   0  0  0  0  0  0  0  0  0  0  0  0
   -2.8364    1.9691   -1.2007 C   0  0  0  0  0  0  0  0  0  0  0  0
   -2.2279    0.9586   -0.5003 C   0  0  0  0  0  0  0  0  0  0  0  0
   -0.8302    0.8158   -0.3794 N   0  0  0  0  0  0  0  0  0  0  0  0
   -0.1674   -0.2073   -0.6460 N   0  0  0  0  0  0  0  0  0  0  0  0
    1.2642   -0.1276   -0.4456 C   0  0  0  0  0  0  0  0  0  0  0  0
    2.0614   -0.9071    0.2339 N   0  0  0  0  0  0  0  0  0  0  0  0
    3.3413   -0.6635    0.2943 C   0  0  0  0  0  0  0  0  0  0  0  0
    4.3111   -1.4153    0.9855 C   0  0  0  0  0  0  0  0  0  0  0  0
    5.6136   -1.0438    0.9618 C   0  0  0  0  0  0  0  0  0  0  0  0
    6.1023    0.0600    0.2881 C   0  0  0  0  0  0  0  0  0  0  0  0
    5.1526    0.7965   -0.3890 C   0  0  0  0  0  0  0  0  0  0  0  0
    3.8042    0.4356   -0.3808 C   0  0  0  0  0  0  0  0  0  0  0  0
    2.3631    1.0502   -1.0614 S   0  0  0  0  0  0  0  0  0  0  0  0
   -3.8862   -1.4309    2.2516 H   0  0  0  0  0  0  0  0  0  0  0  0
   -3.9911   -2.3447    0.6900 H   0  0  0  0  0  0  0  0  0  0  0  0
   -2.6627   -2.7350    1.8952 H   0  0  0  0  0  0  0  0  0  0  0  0
   -5.0780   -0.5932    0.5118 H   0  0  0  0  0  0  0  0  0  0  0  0
   -6.0754    1.2357   -0.7540 H   0  0  0  0  0  0  0  0  0  0  0  0
   -4.6527    2.8982   -1.8656 H   0  0  0  0  0  0  0  0  0  0  0  0
   -2.2272    2.7099   -1.6964 H   0  0  0  0  0  0  0  0  0  0  0  0
    4.0337   -2.3054    1.5495 H   0  0  0  0  0  0  0  0  0  0  0  0
    6.3845   -1.6207    1.4969 H   0  0  0  0  0  0  0  0  0  0  0  0
    7.1269    0.3443    0.2748 H   0  0  0  0  0  0  0  0  0  0  0  0
    5.4648    1.6690   -0.9347 H   0  0  0  0  0  0  0  0  0  0  0  0
  1  2  1  0
  2  3  1  0
  3  4  2  0
  4  5  1  0
  5  6  2  0
  6  7  1  0
  7  8  2  0
  8  9  1  0
  9 10  2  0
 10 11  1  0
 11 12  2  0
 12 13  1  0
 13 14  2  0
 14 15  1  0
 15 16  2  0
 16 17  1  0
 17 18  2  0
 18 19  1  0
  8  3  1  0
 19 11  1  0
 18 13  1  0
  1 20  1  0
  1 21  1  0
  1 22  1  0
  4 23  1  0
  5 24  1  0
  6 25  1  0
  7 26  1  0
 14 27  1  0
 15 28  1  0
 16 29  1  0
 17 30  1  0
M  END
