
     RDKit          3D

 32 36  0  0  0  0  0  0  0  0999 V2000
    1.4907   -2.4319   -0.9951 F   0  0  0  0  0  0  0  0  0  0  0  0
    1.5131   -1.5808    0.1764 B   0  0  0  0  0  4  0  0  0  0  0  0
    1.4893   -2.3444    1.4136 F   0  0  0  0  0  0  0  0  0  0  0  0
    0.3411   -0.6159    0.1704 N   0  0  0  0  0  0  0  0  0  0  0  0
    0.8661    0.7110    0.1171 C   0  0  0  0  0  0  0  0  0  0  0  0
    0.0056    1.6785    0.1045 N   0  0  0  0  0  0  0  0  0  0  0  0
   -1.4046    1.4515    0.1415 C   0  0  0  0  0  0  0  0  0  0  0  0
   -2.3130    2.5098    0.1271 C   0  0  0  0  0  0  0  0  0  0  0  0
   -3.6703    2.3125    0.1620 C   0  0  0  0  0  0  0  0  0  0  0  0
   -4.1601    1.0155    0.2136 C   0  0  0  0  0  0  0  0  0  0  0  0
   -3.2998   -0.0630    0.2297 C   0  0  0  0  0  0  0  0  0  0  0  0
   -3.7257   -1.3682    0.2802 C   0  0  0  0  0  0  0  0  0  0  0  0
   -2.8571   -2.4400    0.2960 C   0  0  0  0  0  0  0  0  0  0  0  0
   -1.5030   -2.1781    0.2590 C   0  0  0  0  0  0  0  0  0  0  0  0
   -1.0575   -0.8738    0.2082 C   0  0  0  0  0  0  0  0  0  0  0  0
   -1.9457    0.1884    0.1931 C   0  0  0  0  0  0  0  0  0  0  0  0
    2.3239    0.6415    0.0886 C   0  0  0  0  0  0  0  0  0  0  0  0
    3.2687    1.6457    0.0367 C   0  0  0  0  0  0  0  0  0  0  0  0
    4.6221    1.3630    0.0171 C   0  0  0  0  0  0  0  0  0  0  0  0
    4.9700    0.0262    0.0523 C   0  0  0  0  0  0  0  0  0  0  0  0
    4.0363   -0.9762    0.1039 C   0  0  0  0  0  0  0  0  0  0  0  0
    2.7295   -0.6519    0.1211 N   0  0  0  0  0  4  0  0  0  0  0  0
   -1.9397    3.5043    0.0875 H   0  0  0  0  0  0  0  0  0  0  0  0
   -4.4006    3.1196    0.1517 H   0  0  0  0  0  0  0  0  0  0  0  0
   -5.2285    0.8140    0.2426 H   0  0  0  0  0  0  0  0  0  0  0  0
   -4.7979   -1.5560    0.3088 H   0  0  0  0  0  0  0  0  0  0  0  0
   -3.2416   -3.4712    0.3369 H   0  0  0  0  0  0  0  0  0  0  0  0
   -0.8375   -3.0309    0.2721 H   0  0  0  0  0  0  0  0  0  0  0  0
    2.9834    2.6885    0.0096 H   0  0  0  0  0  0  0  0  0  0  0  0
    5.3642    2.1630   -0.0240 H   0  0  0  0  0  0  0  0  0  0  0  0
    6.0204   -0.2242    0.0381 H   0  0  0  0  0  0  0  0  0  0  0  0
    4.3582   -2.0266    0.1305 H   0  0  0  0  0  0  0  0  0  0  0  0
  1  2  1  0
  2  3  1  0
  2  4  1  0
  4  5  1  0
  5  6  2  0
  6  7  1  0
  7  8  2  0
  8  9  1  0
  9 10  2  0
 10 11  1  0
 11 12  2  0
 12 13  1  0
 13 14  2  0
 14 15  1  0
 15 16  2  0
  5 17  1  0
 17 18  2  0
 18 19  1  0
 19 20  2  0
 20 21  1  0
 21 22  2  0
 22  2  1  0
 15  4  1  0
 22 17  1  0
 16  7  1  0
 16 11  1  0
  8 23  1  0
  9 24  1  0
 10 25  1  0
 12 26  1  0
 13 27  1  0
 14 28  1  0
 18 29  1  0
 19 30  1  0
 20 31  1  0
 21 32  1  0
M  CHG  2   2  -1  22   1
M  END
