
     RDKit          3D

 46 49  0  0  0  0  0  0  0  0999 V2000
    4.3344    2.1333    1.4619 C   0  0  0  0  0  0  0  0  0  0  0  0
    4.2316    1.0470    1.0088 C   0  0  0  0  0  0  0  0  0  0  0  0
    4.0835   -0.3345    0.4113 C   0  0  0  0  0  0  0  0  0  0  0  0
    3.2033   -0.2074   -0.8209 C   0  0  0  0  0  0  0  0  0  0  0  0
    1.8639   -0.6844   -0.5559 N   0  0  0  0  0  0  0  0  0  0  0  0
    1.8825   -2.1006   -0.2223 C   0  0  0  0  0  0  0  0  0  0  0  0
    2.9667   -2.4920    0.7414 C   0  0  0  0  0  0  0  0  0  0  0  0
    3.3935   -1.1761    1.4465 C   0  0  0  0  0  0  0  0  0  0  0  0
    2.0537   -0.4993    1.8272 C   0  0  0  0  0  0  0  0  0  0  0  0
    1.4084    0.0834    0.6254 C   0  0  0  0  0  0  0  0  0  0  0  0
   -0.0985    0.1230    0.6639 C   0  0  1  0  0  0  0  0  0  0  0  0
   -0.3314    0.7995    1.9640 O   0  0  0  0  0  0  0  0  0  0  0  0
   -0.6998    1.1563   -0.2263 C   0  0  0  0  0  0  0  0  0  0  0  0
   -0.0173    2.3714   -0.3793 C   0  0  0  0  0  0  0  0  0  0  0  0
   -0.6937    3.3647   -1.0460 C   0  0  0  0  0  0  0  0  0  0  0  0
   -1.9570    3.2445   -1.5418 N   0  0  0  0  0  0  0  0  0  0  0  0
   -2.6196    2.0595   -1.3803 C   0  0  0  0  0  0  0  0  0  0  0  0
   -3.8532    1.9498   -1.8579 C   0  0  0  0  0  0  0  0  0  0  0  0
   -4.6305    0.8298   -1.7908 C   0  0  0  0  0  0  0  0  0  0  0  0
   -3.9843   -0.3337   -1.1133 C   0  0  0  0  0  0  0  0  0  0  0  0
   -4.7617   -1.3501   -1.1151 O   0  0  0  0  0  0  0  0  0  0  0  0
   -5.5233   -2.4020   -1.0980 C   0  0  0  0  0  0  0  0  0  0  0  0
   -2.7489   -0.1451   -0.6510 C   0  0  0  0  0  0  0  0  0  0  0  0
   -1.9643    1.0154   -0.7189 C   0  0  0  0  0  0  0  0  0  0  0  0
    4.4239    3.1899    1.9035 H   0  0  0  0  0  0  0  0  0  0  0  0
    5.0547   -0.7603    0.1682 H   0  0  0  0  0  0  0  0  0  0  0  0
    3.6562   -0.6088   -1.7466 H   0  0  0  0  0  0  0  0  0  0  0  0
    3.0974    0.9094   -1.0211 H   0  0  0  0  0  0  0  0  0  0  0  0
    2.0301   -2.6248   -1.2020 H   0  0  0  0  0  0  0  0  0  0  0  0
    0.9006   -2.4153    0.1743 H   0  0  0  0  0  0  0  0  0  0  0  0
    2.6282   -3.2468    1.5137 H   0  0  0  0  0  0  0  0  0  0  0  0
    3.8487   -2.8812    0.2324 H   0  0  0  0  0  0  0  0  0  0  0  0
    3.8984   -1.3417    2.3874 H   0  0  0  0  0  0  0  0  0  0  0  0
    2.2726    0.2754    2.5832 H   0  0  0  0  0  0  0  0  0  0  0  0
    1.4646   -1.2681    2.3315 H   0  0  0  0  0  0  0  0  0  0  0  0
    1.8408    1.0974    0.4393 H   0  0  0  0  0  0  0  0  0  0  0  0
   -0.5692   -0.8169    0.6330 H   0  0  0  0  0  0  0  0  0  0  0  0
   -1.3104    0.9524    2.0438 H   0  0  0  0  0  0  0  0  0  0  0  0
    0.9468    2.5776    0.0502 H   0  0  0  0  0  0  0  0  0  0  0  0
   -0.1654    4.3312   -1.2017 H   0  0  0  0  0  0  0  0  0  0  0  0
   -4.3359    2.8611   -2.3537 H   0  0  0  0  0  0  0  0  0  0  0  0
   -5.6070    0.7680   -2.1382 H   0  0  0  0  0  0  0  0  0  0  0  0
   -5.4671   -3.1689   -0.3034 H   0  0  0  0  0  0  0  0  0  0  0  0
   -6.6600   -2.2568   -1.2168 H   0  0  0  0  0  0  0  0  0  0  0  0
   -5.2640   -3.0223   -2.1102 H   0  0  0  0  0  0  0  0  0  0  0  0
   -2.2217   -1.0025   -0.1657 H   0  0  0  0  0  0  0  0  0  0  0  0
  1  2  3  0
  2  3  1  0
  3  4  1  0
  4  5  1  0
  5  6  1  0
  6  7  1  0
  7  8  1  0
  8  9  1  0
  9 10  1  0
 10 11  1  0
 11 12  1  0
 11 13  1  0
 13 14  2  0
 14 15  1  0
 15 16  2  0
 16 17  1  0
 17 18  2  0
 18 19  1  0
 19 20  2  0
 20 21  1  0
 21 22  1  0
 20 23  1  0
 23 24  2  0
  8  3  1  0
 24 13  1  0
 10  5  1  0
 24 17  1  0
  1 25  1  0
  3 26  1  0
  4 27  1  0
  4 28  1  0
  6 29  1  0
  6 30  1  0
  7 31  1  0
  7 32  1  0
  8 33  1  0
  9 34  1  0
  9 35  1  0
 10 36  1  0
 11 37  1  1
 12 38  1  0
 14 39  1  0
 15 40  1  0
 18 41  1  0
 19 42  1  0
 22 43  1  0
 22 44  1  0
 22 45  1  0
 23 46  1  0
M  END
