
     RDKit          3D

 44 47  0  0  0  0  0  0  0  0999 V2000
    7.2836   -0.8641   -0.3199 C   0  0  0  0  0  0  0  0  0  0  0  0
    6.4445    0.2945   -0.1980 N   0  0  0  0  0  0  0  0  0  0  0  0
    7.0047    1.6265   -0.2237 C   0  0  0  0  0  0  0  0  0  0  0  0
    5.0488    0.1501   -0.0394 C   0  0  0  0  0  0  0  0  0  0  0  0
    4.5751   -0.7427    0.8981 C   0  0  0  0  0  0  0  0  0  0  0  0
    3.1959   -0.8933    1.0685 C   0  0  0  0  0  0  0  0  0  0  0  0
    2.3078   -0.1511    0.3013 C   0  0  0  0  0  0  0  0  0  0  0  0
    0.8723   -0.3451    0.4946 C   0  0  0  0  0  0  0  0  0  0  0  0
    0.3580   -1.1894    1.3000 N   0  0  0  0  0  0  0  0  0  0  0  0
   -1.0806   -1.3143    1.4392 C   0  0  0  0  0  0  0  0  0  0  0  0
   -1.9956   -2.5099    2.2806 S   0  0  0  0  0  0  0  0  0  0  0  0
   -3.5316   -2.0402    1.7673 C   0  0  0  0  0  0  0  0  0  0  0  0
   -3.2739   -0.9501    0.9501 C   0  0  0  0  0  0  0  0  0  0  0  0
   -4.4422   -0.3481    0.2162 C   0  0  0  0  0  0  0  0  0  0  0  0
   -5.5103   -1.2190   -0.0805 C   0  0  0  0  0  0  0  0  0  0  0  0
   -6.6438   -0.7767   -0.6911 C   0  0  0  0  0  0  0  0  0  0  0  0
   -6.7941    0.5541   -1.0468 C   0  0  0  0  0  0  0  0  0  0  0  0
   -7.9499    1.0477   -1.6846 N   0  0  0  0  0  4  0  0  0  0  0  0
   -8.0396    2.2499   -1.9591 O   0  0  0  0  0  0  0  0  0  0  0  0
   -8.9684    0.1960   -1.9950 O   0  0  0  0  0  1  0  0  0  0  0  0
   -5.7507    1.3764   -0.7460 C   0  0  0  0  0  0  0  0  0  0  0  0
   -4.5753    0.9409   -0.1169 C   0  0  0  0  0  0  0  0  0  0  0  0
   -1.9975   -0.6098    0.8101 N   0  0  0  0  0  4  0  0  0  0  0  0
   -1.4355    0.5993   -0.0114 B   0  0  0  0  0  4  0  0  0  0  0  0
   -2.0906    0.7289   -1.2909 F   0  0  0  0  0  0  0  0  0  0  0  0
   -1.5249    1.8068    0.8291 F   0  0  0  0  0  0  0  0  0  0  0  0
    0.0054    0.4136   -0.2378 O   0  0  0  0  0  0  0  0  0  0  0  0
    2.8083    0.7250   -0.6204 C   0  0  0  0  0  0  0  0  0  0  0  0
    4.1583    0.8917   -0.8074 C   0  0  0  0  0  0  0  0  0  0  0  0
    8.3612   -0.5900   -0.4110 H   0  0  0  0  0  0  0  0  0  0  0  0
    6.9941   -1.3834   -1.2613 H   0  0  0  0  0  0  0  0  0  0  0  0
    7.0907   -1.5762    0.4909 H   0  0  0  0  0  0  0  0  0  0  0  0
    7.3130    1.8130   -1.2838 H   0  0  0  0  0  0  0  0  0  0  0  0
    7.8288    1.7675    0.4885 H   0  0  0  0  0  0  0  0  0  0  0  0
    6.2393    2.4046    0.0046 H   0  0  0  0  0  0  0  0  0  0  0  0
    5.2317   -1.3529    1.5350 H   0  0  0  0  0  0  0  0  0  0  0  0
    2.8469   -1.5922    1.8022 H   0  0  0  0  0  0  0  0  0  0  0  0
   -4.5285   -2.4712    2.0057 H   0  0  0  0  0  0  0  0  0  0  0  0
   -5.4663   -2.2771    0.1666 H   0  0  0  0  0  0  0  0  0  0  0  0
   -7.5021   -1.4133   -0.9399 H   0  0  0  0  0  0  0  0  0  0  0  0
   -5.7564    2.4552   -0.9791 H   0  0  0  0  0  0  0  0  0  0  0  0
   -3.8265    1.6704    0.1354 H   0  0  0  0  0  0  0  0  0  0  0  0
    2.1152    1.3150   -1.2361 H   0  0  0  0  0  0  0  0  0  0  0  0
    4.6007    1.5827   -1.5381 H   0  0  0  0  0  0  0  0  0  0  0  0
  1  2  1  0
  2  3  1  0
  2  4  1  0
  4  5  2  0
  5  6  1  0
  6  7  2  0
  7  8  1  0
  8  9  2  0
  9 10  1  0
 10 11  1  0
 11 12  1  0
 12 13  2  0
 13 14  1  0
 14 15  2  0
 15 16  1  0
 16 17  2  0
 17 18  1  0
 18 19  2  0
 18 20  1  0
 17 21  1  0
 21 22  2  0
 13 23  1  0
 23 24  1  0
 24 25  1  0
 24 26  1  0
 24 27  1  0
  7 28  1  0
 28 29  2  0
 29  4  1  0
 27  8  1  0
 23 10  2  0
 22 14  1  0
  1 30  1  0
  1 31  1  0
  1 32  1  0
  3 33  1  0
  3 34  1  0
  3 35  1  0
  5 36  1  0
  6 37  1  0
 12 38  1  0
 15 39  1  0
 16 40  1  0
 21 41  1  0
 22 42  1  0
 28 43  1  0
 29 44  1  0
M  CHG  4  18   1  20  -1  23   1  24  -1
M  END
