
     RDKit          3D

 54 58  0  0  0  0  0  0  0  0999 V2000
    4.9912   -3.1069   -2.3076 C   0  0  0  0  0  0  0  0  0  0  0  0
    3.7631   -2.4931   -2.7598 O   0  0  0  0  0  0  0  0  0  0  0  0
    2.9581   -1.8339   -1.8647 C   0  0  0  0  0  0  0  0  0  0  0  0
    1.7607   -1.2593   -2.2705 C   0  0  0  0  0  0  0  0  0  0  0  0
    0.9327   -0.5944   -1.4609 C   0  0  0  0  0  0  0  0  0  0  0  0
    1.2194   -0.3939   -0.0827 C   0  0  0  0  0  0  0  0  0  0  0  0
    2.4017   -0.9967    0.3030 C   0  0  0  0  0  0  0  0  0  0  0  0
    3.2624   -1.6954   -0.5461 C   0  0  0  0  0  0  0  0  0  0  0  0
    2.6183   -1.2928    1.6667 C   0  0  0  0  0  0  0  0  0  0  0  0
    3.8624   -1.8534    2.1736 C   0  0  0  0  0  0  0  0  0  0  0  0
    4.7876   -2.2680    2.5705 N   0  0  0  0  0  0  0  0  0  0  0  0
    1.6349   -0.9786    2.5665 C   0  0  0  0  0  0  0  0  0  0  0  0
    0.5278   -0.3939    2.1539 C   0  0  0  0  0  0  0  0  0  0  0  0
   -0.6272   -0.3625    3.0760 C   0  0  0  0  0  0  0  0  0  0  0  0
   -0.3686   -0.7468    4.3555 O   0  0  0  0  0  0  0  0  0  0  0  0
   -0.4621   -2.0743    4.8536 C   0  0  0  0  0  0  0  0  0  0  0  0
   -1.7661    0.0308    2.5196 C   0  0  0  0  0  0  0  0  0  0  0  0
   -2.9110    0.0474    3.4276 O   0  0  0  0  0  0  0  0  0  0  0  0
   -3.7167   -1.0870    3.5350 C   0  0  0  0  0  0  0  0  0  0  0  0
   -2.1013    0.4424    1.2676 C   0  0  0  0  0  0  0  0  0  0  0  0
   -3.2761    0.9757    0.9242 C   0  0  0  0  0  0  0  0  0  0  0  0
   -3.3257    1.5737   -0.3433 C   0  0  0  0  0  0  0  0  0  0  0  0
   -4.6381    2.1265   -0.6999 C   0  0  0  0  0  0  0  0  0  0  0  0
   -5.7103    2.5598   -1.0021 N   0  0  0  0  0  0  0  0  0  0  0  0
   -2.3000    1.6294   -1.1233 C   0  0  0  0  0  0  0  0  0  0  0  0
   -2.2579    2.5404   -2.2297 C   0  0  0  0  0  0  0  0  0  0  0  0
   -1.2285    2.9141   -2.9429 C   0  0  0  0  0  0  0  0  0  0  0  0
   -1.4279    3.8123   -3.9761 O   0  0  0  0  0  0  0  0  0  0  0  0
   -0.4916    4.3178   -4.8601 C   0  0  0  0  0  0  0  0  0  0  0  0
    0.0244    2.3761   -2.6151 C   0  0  0  0  0  0  0  0  0  0  0  0
    0.0334    1.4830   -1.5669 C   0  0  0  0  0  0  0  0  0  0  0  0
   -0.9951    1.0652   -0.8411 C   0  0  0  0  0  0  0  0  0  0  0  0
   -0.9417    0.4132    0.3844 C   0  0  0  0  0  0  0  0  0  0  0  0
    0.2286   -0.0254    0.8673 C   0  0  0  0  0  0  0  0  0  0  0  0
    5.6757   -2.3071   -1.9398 H   0  0  0  0  0  0  0  0  0  0  0  0
    5.3653   -3.7406   -3.1069 H   0  0  0  0  0  0  0  0  0  0  0  0
    4.6674   -3.7311   -1.4583 H   0  0  0  0  0  0  0  0  0  0  0  0
    1.5195   -1.4265   -3.3372 H   0  0  0  0  0  0  0  0  0  0  0  0
   -0.0768   -0.4430   -1.9103 H   0  0  0  0  0  0  0  0  0  0  0  0
    4.1755   -2.1224   -0.1412 H   0  0  0  0  0  0  0  0  0  0  0  0
    1.7614   -1.1989    3.6459 H   0  0  0  0  0  0  0  0  0  0  0  0
    0.2163   -2.2033    5.7093 H   0  0  0  0  0  0  0  0  0  0  0  0
   -1.4907   -2.2769    5.2542 H   0  0  0  0  0  0  0  0  0  0  0  0
   -0.2337   -2.7844    4.0271 H   0  0  0  0  0  0  0  0  0  0  0  0
   -3.6585   -1.4532    4.6049 H   0  0  0  0  0  0  0  0  0  0  0  0
   -3.3957   -1.8835    2.8211 H   0  0  0  0  0  0  0  0  0  0  0  0
   -4.7531   -0.7610    3.3681 H   0  0  0  0  0  0  0  0  0  0  0  0
   -4.0928    0.9174    1.5997 H   0  0  0  0  0  0  0  0  0  0  0  0
   -3.2997    2.9388   -2.4168 H   0  0  0  0  0  0  0  0  0  0  0  0
   -0.1678    3.5927   -5.6200 H   0  0  0  0  0  0  0  0  0  0  0  0
   -1.0540    5.1536   -5.4346 H   0  0  0  0  0  0  0  0  0  0  0  0
    0.3886    4.8206   -4.4065 H   0  0  0  0  0  0  0  0  0  0  0  0
    0.8708    2.6875   -3.1832 H   0  0  0  0  0  0  0  0  0  0  0  0
    1.1215    1.3698   -1.2282 H   0  0  0  0  0  0  0  0  0  0  0  0
  1  2  1  0
  2  3  1  0
  3  4  2  0
  4  5  1  0
  5  6  2  0
  6  7  1  0
  7  8  2  0
  7  9  1  0
  9 10  1  0
 10 11  3  0
  9 12  2  0
 12 13  1  0
 13 14  2  0
 14 15  1  0
 15 16  1  0
 14 17  1  0
 17 18  1  0
 18 19  1  0
 17 20  2  0
 20 21  1  0
 21 22  2  0
 22 23  1  0
 23 24  3  0
 22 25  1  0
 25 26  2  0
 26 27  1  0
 27 28  1  0
 28 29  1  0
 27 30  2  0
 30 31  1  0
 31 32  2  0
 32 33  1  0
 33 34  2  0
  8  3  1  0
 34 13  1  0
 34  6  1  0
 33 20  1  0
 32 25  1  0
  1 35  1  0
  1 36  1  0
  1 37  1  0
  4 38  1  0
  5 39  1  0
  8 40  1  0
 12 41  1  0
 16 42  1  0
 16 43  1  0
 16 44  1  0
 19 45  1  0
 19 46  1  0
 19 47  1  0
 21 48  1  0
 26 49  1  0
 29 50  1  0
 29 51  1  0
 29 52  1  0
 30 53  1  0
 31 54  1  0
M  END
