
     RDKit          3D

 54 56  0  0  0  0  0  0  0  0999 V2000
    4.4540   -0.5909   -1.2315 C   0  0  0  0  0  0  0  0  0  0  0  0
    4.1509    0.5837   -0.6643 O   0  0  0  0  0  0  0  0  0  0  0  0
    3.0175    0.9649    0.1200 C   0  0  0  0  0  0  0  0  0  0  0  0
    2.0412    0.0552    0.3706 C   0  0  0  0  0  0  0  0  0  0  0  0
    0.7831    0.6126    1.2715 C   0  0  0  0  0  0  0  0  0  0  0  0
   -0.1190   -0.3891    1.3440 N   0  0  0  0  0  0  0  0  0  0  0  0
   -0.2161   -1.6727    1.8193 C   0  0  0  0  0  0  0  0  0  0  0  0
    0.5118   -2.7555    1.6289 C   0  0  0  0  0  0  0  0  0  0  0  0
    0.2643   -4.0273    2.4108 C   0  0  0  0  0  0  0  0  0  0  0  0
   -0.6087   -4.0176    3.2148 C   0  0  0  0  0  0  0  0  0  0  0  0
   -1.4267   -2.9502    3.4924 C   0  0  0  0  0  0  0  0  0  0  0  0
   -1.3388   -1.7814    2.8861 C   0  0  0  0  0  0  0  0  0  0  0  0
   -1.1470   -0.2601    0.1818 C   0  0  0  0  0  0  0  0  0  0  0  0
   -0.5122   -0.1932   -1.0160 C   0  0  0  0  0  0  0  0  0  0  0  0
   -1.3438   -0.2714   -2.1876 C   0  0  0  0  0  0  0  0  0  0  0  0
   -2.6722   -0.3845   -2.0294 C   0  0  0  0  0  0  0  0  0  0  0  0
   -3.5608   -0.6044   -3.1249 C   0  0  0  0  0  0  0  0  0  0  0  0
   -4.1560    0.4279   -3.7679 C   0  0  0  0  0  0  0  0  0  0  0  0
   -3.8863    1.7186   -3.3235 C   0  0  0  0  0  0  0  0  0  0  0  0
   -3.6590    2.8891   -2.9284 N   0  0  0  0  0  0  0  0  0  0  0  0
   -5.1025    0.1139   -4.8208 C   0  0  0  0  0  0  0  0  0  0  0  0
   -5.8730   -0.1508   -5.6924 N   0  0  0  0  0  0  0  0  0  0  0  0
   -3.2641   -0.4130   -0.7458 C   0  0  0  0  0  0  0  0  0  0  0  0
   -4.6109   -0.5102   -0.7223 O   0  0  0  0  0  0  0  0  0  0  0  0
   -5.4480   -0.5365    0.3304 C   0  0  0  0  0  0  0  0  0  0  0  0
   -2.4504   -0.3551    0.3591 C   0  0  0  0  0  0  0  0  0  0  0  0
    1.2832    1.6803    1.3568 C   0  0  0  0  0  0  0  0  0  0  0  0
    1.9855    2.8226    1.3513 C   0  0  0  0  0  0  0  0  0  0  0  0
    3.1261    2.2977    0.5103 C   0  0  0  0  0  0  0  0  0  0  0  0
    4.0769    3.2976    0.2476 C   0  0  0  0  0  0  0  0  0  0  0  0
    5.3575    3.4053    0.1368 C   0  0  0  0  0  0  0  0  0  0  0  0
    5.7943    4.7698   -0.2219 C   0  0  0  0  0  0  0  0  0  0  0  0
    6.1380    5.8602   -0.5286 N   0  0  0  0  0  0  0  0  0  0  0  0
    6.3740    2.4856    0.3988 C   0  0  0  0  0  0  0  0  0  0  0  0
    7.2556    1.6930    0.6374 N   0  0  0  0  0  0  0  0  0  0  0  0
    4.9087   -0.3801   -2.2618 H   0  0  0  0  0  0  0  0  0  0  0  0
    5.2892   -1.1665   -0.7114 H   0  0  0  0  0  0  0  0  0  0  0  0
    3.5079   -1.1833   -1.3023 H   0  0  0  0  0  0  0  0  0  0  0  0
    1.9644   -0.8852    0.1331 H   0  0  0  0  0  0  0  0  0  0  0  0
    1.2985   -2.8659    0.9167 H   0  0  0  0  0  0  0  0  0  0  0  0
    0.9758   -4.8415    2.0528 H   0  0  0  0  0  0  0  0  0  0  0  0
   -0.8536   -4.9532    3.8943 H   0  0  0  0  0  0  0  0  0  0  0  0
   -2.1849   -3.1353    4.2940 H   0  0  0  0  0  0  0  0  0  0  0  0
   -1.8781   -0.8598    3.0228 H   0  0  0  0  0  0  0  0  0  0  0  0
    0.4940   -0.0738   -1.2561 H   0  0  0  0  0  0  0  0  0  0  0  0
   -0.8040   -0.2761   -3.1356 H   0  0  0  0  0  0  0  0  0  0  0  0
   -3.7810   -1.6349   -3.4729 H   0  0  0  0  0  0  0  0  0  0  0  0
   -6.1967   -1.3469    0.2473 H   0  0  0  0  0  0  0  0  0  0  0  0
   -6.0240    0.4277    0.3941 H   0  0  0  0  0  0  0  0  0  0  0  0
   -4.9405   -0.6377    1.3427 H   0  0  0  0  0  0  0  0  0  0  0  0
   -2.8710   -0.3644    1.3288 H   0  0  0  0  0  0  0  0  0  0  0  0
    0.2733    2.2447    2.1461 H   0  0  0  0  0  0  0  0  0  0  0  0
    1.9991    3.7511    1.6634 H   0  0  0  0  0  0  0  0  0  0  0  0
    3.6043    4.3672    0.0843 H   0  0  0  0  0  0  0  0  0  0  0  0
  1  2  1  0
  2  3  1  0
  3  4  2  0
  4  5  1  0
  5  6  1  0
  6  7  1  0
  7  8  2  0
  8  9  1  0
  9 10  2  0
 10 11  1  0
 11 12  2  0
  6 13  1  0
 13 14  2  0
 14 15  1  0
 15 16  2  0
 16 17  1  0
 17 18  2  3
 18 19  1  0
 19 20  3  0
 18 21  1  0
 21 22  3  0
 16 23  1  0
 23 24  1  0
 24 25  1  0
 23 26  2  0
  5 27  2  0
 27 28  1  0
 28 29  2  0
 29 30  1  0
 30 31  2  3
 31 32  1  0
 32 33  3  0
 31 34  1  0
 34 35  3  0
 29  3  1  0
 12  7  1  0
 26 13  1  0
  1 36  1  0
  1 37  1  0
  1 38  1  0
  4 39  1  0
  8 40  1  0
  9 41  1  0
 10 42  1  0
 11 43  1  0
 12 44  1  0
 14 45  1  0
 15 46  1  0
 17 47  1  0
 25 48  1  0
 25 49  1  0
 25 50  1  0
 26 51  1  0
 27 52  1  0
 28 53  1  0
 30 54  1  0
M  END
