
     RDKit          3D

 67 77  0  0  0  0  0  0  0  0999 V2000
   -0.1707   -1.8825   -0.0507 C   0  0  0  0  0  0  0  0  0  0  0  0
   -1.2291   -1.0951   -0.2147 C   0  0  0  0  0  0  0  0  0  0  0  0
   -2.6331   -1.3719   -0.3969 C   0  0  0  0  0  0  0  0  0  0  0  0
   -3.3551   -0.2131   -0.2741 C   0  0  0  0  0  0  0  0  0  0  0  0
   -2.3558    0.8015   -0.0022 C   0  0  0  0  0  0  0  0  0  0  0  0
   -1.1783    0.2937    0.0116 N   0  0  0  0  0  4  0  0  0  0  0  0
    0.0652    1.1030    0.0968 B   0  0  0  0  0  4  0  0  0  0  0  0
   -0.1387    1.9854    1.2956 O   0  0  0  0  0  0  0  0  0  0  0  0
   -1.3890    2.6857    1.2925 C   0  0  0  0  0  0  0  0  0  0  0  0
   -1.5271    3.9084    1.8962 C   0  0  0  0  0  0  0  0  0  0  0  0
   -2.7559    4.5399    1.8661 C   0  0  0  0  0  0  0  0  0  0  0  0
   -3.8512    3.9791    1.2463 C   0  0  0  0  0  0  0  0  0  0  0  0
   -3.7150    2.7267    0.6260 C   0  0  0  0  0  0  0  0  0  0  0  0
   -2.5124    2.1234    0.6646 C   0  0  0  0  0  0  0  0  0  0  0  0
    0.3636    2.1404   -0.9755 O   0  0  0  0  0  0  0  0  0  0  0  0
    1.6770    2.6944   -0.9061 C   0  0  0  0  0  0  0  0  0  0  0  0
    1.9569    3.9660   -1.3310 C   0  0  0  0  0  0  0  0  0  0  0  0
    3.2434    4.4775   -1.2539 C   0  0  0  0  0  0  0  0  0  0  0  0
    4.2723    3.7190   -0.7468 C   0  0  0  0  0  0  0  0  0  0  0  0
    4.0075    2.4143   -0.3055 C   0  0  0  0  0  0  0  0  0  0  0  0
    2.7449    1.9475   -0.3962 C   0  0  0  0  0  0  0  0  0  0  0  0
    2.4769    0.5651    0.0896 C   0  0  0  0  0  0  0  0  0  0  0  0
    3.3172   -0.5122    0.1924 C   0  0  0  0  0  0  0  0  0  0  0  0
    2.4249   -1.6134    0.1908 C   0  0  0  0  0  0  0  0  0  0  0  0
    1.1294   -1.1753    0.0948 C   0  0  0  0  0  0  0  0  0  0  0  0
    1.2111    0.1392    0.0496 N   0  0  0  0  0  0  0  0  0  0  0  0
    3.0698   -2.9408    0.2893 C   0  0  0  0  0  0  0  0  0  0  0  0
    4.0806   -3.0761   -0.8396 C   0  0  0  0  0  0  0  0  0  0  0  0
    5.0478   -1.9526   -0.7998 C   0  0  0  0  0  0  0  0  0  0  0  0
    4.7135   -0.8897    0.2778 C   0  0  0  0  0  0  0  0  0  0  0  0
    4.8351   -1.6912    1.5966 C   0  0  0  0  0  0  0  0  0  0  0  0
    3.9236   -2.8647    1.5645 C   0  0  0  0  0  0  0  0  0  0  0  0
   -4.7765   -0.4007   -0.4388 C   0  0  0  0  0  0  0  0  0  0  0  0
   -4.9781   -1.0302   -1.8373 C   0  0  0  0  0  0  0  0  0  0  0  0
   -4.2173   -2.3079   -1.9267 C   0  0  0  0  0  0  0  0  0  0  0  0
   -3.4114   -2.5885   -0.6744 C   0  0  0  0  0  0  0  0  0  0  0  0
   -4.4057   -2.7447    0.4410 C   0  0  0  0  0  0  0  0  0  0  0  0
   -5.2337   -1.5151    0.5320 C   0  0  0  0  0  0  0  0  0  0  0  0
   -0.2416   -2.9359   -0.0257 H   0  0  0  0  0  0  0  0  0  0  0  0
   -0.6676    4.3446    2.3801 H   0  0  0  0  0  0  0  0  0  0  0  0
   -2.8951    5.5037    2.3336 H   0  0  0  0  0  0  0  0  0  0  0  0
   -4.8010    4.4595    1.2188 H   0  0  0  0  0  0  0  0  0  0  0  0
   -4.5426    2.2773    0.1229 H   0  0  0  0  0  0  0  0  0  0  0  0
    1.1928    4.6044   -1.7349 H   0  0  0  0  0  0  0  0  0  0  0  0
    3.4587    5.4750   -1.5895 H   0  0  0  0  0  0  0  0  0  0  0  0
    5.2860    4.0584   -0.6616 H   0  0  0  0  0  0  0  0  0  0  0  0
    4.7830    1.8133    0.1106 H   0  0  0  0  0  0  0  0  0  0  0  0
    2.3849   -3.7748    0.3748 H   0  0  0  0  0  0  0  0  0  0  0  0
    4.5380   -4.0858   -0.7192 H   0  0  0  0  0  0  0  0  0  0  0  0
    3.5424   -3.0977   -1.8325 H   0  0  0  0  0  0  0  0  0  0  0  0
    5.1906   -1.4612   -1.7849 H   0  0  0  0  0  0  0  0  0  0  0  0
    6.0477   -2.3603   -0.5125 H   0  0  0  0  0  0  0  0  0  0  0  0
    5.4965   -0.1714    0.1894 H   0  0  0  0  0  0  0  0  0  0  0  0
    4.5630   -0.9789    2.4277 H   0  0  0  0  0  0  0  0  0  0  0  0
    5.8796   -1.9832    1.7789 H   0  0  0  0  0  0  0  0  0  0  0  0
    3.1810   -2.7762    2.4016 H   0  0  0  0  0  0  0  0  0  0  0  0
    4.4541   -3.8239    1.7300 H   0  0  0  0  0  0  0  0  0  0  0  0
   -5.4730    0.3943   -0.2724 H   0  0  0  0  0  0  0  0  0  0  0  0
   -4.6435   -0.2479   -2.5514 H   0  0  0  0  0  0  0  0  0  0  0  0
   -6.0519   -1.2510   -1.9992 H   0  0  0  0  0  0  0  0  0  0  0  0
   -4.8272   -3.1823   -2.2435 H   0  0  0  0  0  0  0  0  0  0  0  0
   -3.4557   -2.1807   -2.7491 H   0  0  0  0  0  0  0  0  0  0  0  0
   -2.7970   -3.4796   -0.8439 H   0  0  0  0  0  0  0  0  0  0  0  0
   -3.8574   -2.9497    1.4042 H   0  0  0  0  0  0  0  0  0  0  0  0
   -5.0012   -3.6728    0.2529 H   0  0  0  0  0  0  0  0  0  0  0  0
   -6.2853   -1.7572    0.2882 H   0  0  0  0  0  0  0  0  0  0  0  0
   -5.1846   -1.1047    1.5628 H   0  0  0  0  0  0  0  0  0  0  0  0
  1  2  2  0
  2  3  1  0
  3  4  2  0
  4  5  1  0
  5  6  2  0
  6  7  1  0
  7  8  1  0
  8  9  1  0
  9 10  2  0
 10 11  1  0
 11 12  2  0
 12 13  1  0
 13 14  2  0
  7 15  1  0
 15 16  1  0
 16 17  2  0
 17 18  1  0
 18 19  2  0
 19 20  1  0
 20 21  2  0
 21 22  1  0
 22 23  2  0
 23 24  1  0
 24 25  2  0
 25 26  1  0
 24 27  1  0
 27 28  1  0
 28 29  1  0
 29 30  1  0
 30 31  1  0
 31 32  1  0
  4 33  1  0
 33 34  1  0
 34 35  1  0
 35 36  1  0
 36 37  1  0
 37 38  1  0
 25  1  1  0
 32 27  1  0
 38 33  1  0
  6  2  1  0
 26  7  1  0
 36  3  1  0
 14  5  1  0
 21 16  1  0
 26 22  1  0
 14  9  1  0
 30 23  1  0
  1 39  1  0
 10 40  1  0
 11 41  1  0
 12 42  1  0
 13 43  1  0
 17 44  1  0
 18 45  1  0
 19 46  1  0
 20 47  1  0
 27 48  1  0
 28 49  1  0
 28 50  1  0
 29 51  1  0
 29 52  1  0
 30 53  1  0
 31 54  1  0
 31 55  1  0
 32 56  1  0
 32 57  1  0
 33 58  1  0
 34 59  1  0
 34 60  1  0
 35 61  1  0
 35 62  1  0
 36 63  1  0
 37 64  1  0
 37 65  1  0
 38 66  1  0
 38 67  1  0
M  CHG  2   6   1   7  -1
M  END
