
     RDKit          3D

 52 57  0  0  0  0  0  0  0  0999 V2000
    0.4337   -0.0129   -0.1114 C   0  0  0  0  0  0  0  0  0  0  0  0
   -0.3337   -0.3263   -1.1138 C   0  0  0  0  0  0  0  0  0  0  0  0
   -1.8143   -0.3758   -0.9440 C   0  0  0  0  0  0  0  0  0  0  0  0
   -2.5512   -0.1401    0.1269 N   0  0  0  0  0  0  0  0  0  0  0  0
   -3.8735   -0.3045   -0.1741 C   0  0  0  0  0  0  0  0  0  0  0  0
   -5.0008   -0.1335    0.7288 C   0  0  0  0  0  0  0  0  0  0  0  0
   -6.0310   -1.0416    0.8232 C   0  0  0  0  0  0  0  0  0  0  0  0
   -7.0875   -0.8272    1.6979 C   0  0  0  0  0  0  0  0  0  0  0  0
   -7.1243    0.3083    2.4948 C   0  0  0  0  0  0  0  0  0  0  0  0
   -6.0998    1.2287    2.4132 C   0  0  0  0  0  0  0  0  0  0  0  0
   -5.0676    0.9953    1.5421 C   0  0  0  0  0  0  0  0  0  0  0  0
   -3.9214   -0.6565   -1.4963 C   0  0  0  0  0  0  0  0  0  0  0  0
   -5.0054   -0.9363   -2.3024 C   0  0  0  0  0  0  0  0  0  0  0  0
   -4.8111   -1.2758   -3.6426 C   0  0  0  0  0  0  0  0  0  0  0  0
   -3.5140   -1.3094   -4.0820 C   0  0  0  0  0  0  0  0  0  0  0  0
   -2.4497   -1.0212   -3.2405 C   0  0  0  0  0  0  0  0  0  0  0  0
   -2.6436   -0.6941   -1.9480 N   0  0  0  0  0  0  0  0  0  0  0  0
    1.8677    0.0920   -0.0563 C   0  0  0  0  0  0  0  0  0  0  0  0
    2.5046    0.4925    1.1090 N   0  0  0  0  0  0  0  0  0  0  0  0
    3.8242    0.5168    0.9484 C   0  0  0  0  0  0  0  0  0  0  0  0
    4.8380    0.8823    1.9482 C   0  0  0  0  0  0  0  0  0  0  0  0
    4.7872    0.3748    3.2297 C   0  0  0  0  0  0  0  0  0  0  0  0
    5.7165    0.6973    4.2079 C   0  0  0  0  0  0  0  0  0  0  0  0
    6.7405    1.5640    3.8921 C   0  0  0  0  0  0  0  0  0  0  0  0
    6.8108    2.0827    2.6195 C   0  0  0  0  0  0  0  0  0  0  0  0
    5.8661    1.7470    1.6470 C   0  0  0  0  0  0  0  0  0  0  0  0
    4.0384    0.1231   -0.3466 C   0  0  0  0  0  0  0  0  0  0  0  0
    5.1910   -0.0462   -1.0762 C   0  0  0  0  0  0  0  0  0  0  0  0
    5.1800   -0.4631   -2.3873 C   0  0  0  0  0  0  0  0  0  0  0  0
    3.9636   -0.7147   -2.9710 C   0  0  0  0  0  0  0  0  0  0  0  0
    2.8202   -0.5401   -2.2256 C   0  0  0  0  0  0  0  0  0  0  0  0
    2.8324   -0.1339   -0.9499 N   0  0  0  0  0  0  0  0  0  0  0  0
   -0.1228    0.2026    0.8466 H   0  0  0  0  0  0  0  0  0  0  0  0
    0.0953   -0.5394   -2.0526 H   0  0  0  0  0  0  0  0  0  0  0  0
   -6.0379   -1.9394    0.2242 H   0  0  0  0  0  0  0  0  0  0  0  0
   -7.8694   -1.5742    1.7302 H   0  0  0  0  0  0  0  0  0  0  0  0
   -7.9577    0.4745    3.1819 H   0  0  0  0  0  0  0  0  0  0  0  0
   -6.1611    2.1067    3.0522 H   0  0  0  0  0  0  0  0  0  0  0  0
   -4.2585    1.6937    1.4582 H   0  0  0  0  0  0  0  0  0  0  0  0
   -6.0147   -0.8927   -1.9065 H   0  0  0  0  0  0  0  0  0  0  0  0
   -5.6615   -1.4921   -4.2615 H   0  0  0  0  0  0  0  0  0  0  0  0
   -3.3132   -1.5713   -5.1270 H   0  0  0  0  0  0  0  0  0  0  0  0
   -1.4169   -1.0521   -3.6065 H   0  0  0  0  0  0  0  0  0  0  0  0
    3.9657   -0.3113    3.4580 H   0  0  0  0  0  0  0  0  0  0  0  0
    5.6407    0.2709    5.2186 H   0  0  0  0  0  0  0  0  0  0  0  0
    7.4451    1.7916    4.6791 H   0  0  0  0  0  0  0  0  0  0  0  0
    7.6090    2.7562    2.3792 H   0  0  0  0  0  0  0  0  0  0  0  0
    5.9475    2.1730    0.6662 H   0  0  0  0  0  0  0  0  0  0  0  0
    6.1342    0.1602   -0.5748 H   0  0  0  0  0  0  0  0  0  0  0  0
    6.0818   -0.5999   -2.9720 H   0  0  0  0  0  0  0  0  0  0  0  0
    3.9012   -1.0533   -4.0265 H   0  0  0  0  0  0  0  0  0  0  0  0
    1.9072   -0.7551   -2.7280 H   0  0  0  0  0  0  0  0  0  0  0  0
  1  2  2  0
  2  3  1  0
  3  4  2  0
  4  5  1  0
  5  6  1  0
  6  7  2  0
  7  8  1  0
  8  9  2  0
  9 10  1  0
 10 11  2  0
  5 12  2  0
 12 13  1  0
 13 14  2  0
 14 15  1  0
 15 16  2  0
 16 17  1  0
  1 18  1  0
 18 19  2  0
 19 20  1  0
 20 21  1  0
 21 22  2  0
 22 23  1  0
 23 24  2  0
 24 25  1  0
 25 26  2  0
 20 27  2  0
 27 28  1  0
 28 29  2  0
 29 30  1  0
 30 31  2  0
 31 32  1  0
 17  3  1  0
 32 18  1  0
 11  6  1  0
 17 12  1  0
 26 21  1  0
 32 27  1  0
  1 33  1  0
  2 34  1  0
  7 35  1  0
  8 36  1  0
  9 37  1  0
 10 38  1  0
 11 39  1  0
 13 40  1  0
 14 41  1  0
 15 42  1  0
 16 43  1  0
 22 44  1  0
 23 45  1  0
 24 46  1  0
 25 47  1  0
 26 48  1  0
 28 49  1  0
 29 50  1  0
 30 51  1  0
 31 52  1  0
M  END
