
     RDKit          3D

 88 96  0  0  0  0  0  0  0  0999 V2000
    2.3305    8.6837   -0.6536 C   0  0  0  0  0  0  0  0  0  0  0  0
    3.1566    7.9591    0.3384 C   0  0  0  0  0  0  0  0  0  0  0  0
    2.8947    6.5108    0.5512 C   0  0  0  0  0  0  0  0  0  0  0  0
    1.5517    6.1573    1.0409 C   0  0  0  0  0  0  0  0  0  0  0  0
    0.3739    6.4236    0.1893 C   0  0  0  0  0  0  0  0  0  0  0  0
    0.3256    5.6515   -1.1129 C   0  0  0  0  0  0  0  0  0  0  0  0
    0.2370    4.2178   -0.8734 N   0  0  0  0  0  0  0  0  0  0  0  0
   -1.0133    3.5131   -0.7253 C   0  0  0  0  0  0  0  0  0  0  0  0
   -2.1452    4.0596   -0.7788 O   0  0  0  0  0  0  0  0  0  0  0  0
   -0.7036    2.0844   -0.5081 C   0  0  0  0  0  0  0  0  0  0  0  0
   -1.7090    1.0533   -0.2950 C   0  0  0  0  0  0  0  0  0  0  0  0
   -1.5989    0.0628    0.6342 C   0  0  0  0  0  0  0  0  0  0  0  0
   -2.5909   -0.8761    0.7650 C   0  0  0  0  0  0  0  0  0  0  0  0
   -3.7164   -0.8610   -0.0173 C   0  0  0  0  0  0  0  0  0  0  0  0
   -4.7706   -1.8061    0.0740 N   0  0  0  0  0  0  0  0  0  0  0  0
   -5.9670   -1.5563    0.6254 C   0  0  0  0  0  0  0  0  0  0  0  0
   -6.5422   -0.4440    1.2258 C   0  0  0  0  0  0  0  0  0  0  0  0
   -7.8389   -0.4767    1.7206 C   0  0  0  0  0  0  0  0  0  0  0  0
   -8.5901   -1.6283    1.6242 C   0  0  0  0  0  0  0  0  0  0  0  0
   -8.0494   -2.7428    1.0363 C   0  0  0  0  0  0  0  0  0  0  0  0
   -6.7645   -2.6971    0.5505 C   0  0  0  0  0  0  0  0  0  0  0  0
   -5.9973   -3.6535   -0.0726 C   0  0  0  0  0  0  0  0  0  0  0  0
   -6.2885   -4.9717   -0.4052 C   0  0  0  0  0  0  0  0  0  0  0  0
   -5.3484   -5.7391   -1.0317 C   0  0  0  0  0  0  0  0  0  0  0  0
   -4.1160   -5.1945   -1.3282 C   0  0  0  0  0  0  0  0  0  0  0  0
   -3.8370   -3.8783   -0.9916 C   0  0  0  0  0  0  0  0  0  0  0  0
   -4.7710   -3.0788   -0.3565 C   0  0  0  0  0  0  0  0  0  0  0  0
   -3.8423    0.1341   -0.9606 C   0  0  0  0  0  0  0  0  0  0  0  0
   -2.8373    1.0744   -1.0840 C   0  0  0  0  0  0  0  0  0  0  0  0
    0.5977    1.8897   -0.5153 C   0  0  0  0  0  0  0  0  0  0  0  0
    1.3631    0.6538   -0.3445 C   0  0  0  0  0  0  0  0  0  0  0  0
    2.5163    0.6744    0.4337 C   0  0  0  0  0  0  0  0  0  0  0  0
    3.2913   -0.4472    0.6200 C   0  0  0  0  0  0  0  0  0  0  0  0
    2.9339   -1.6381    0.0276 C   0  0  0  0  0  0  0  0  0  0  0  0
    3.7366   -2.7818    0.2186 N   0  0  0  0  0  0  0  0  0  0  0  0
    5.0446   -2.8206   -0.0853 C   0  0  0  0  0  0  0  0  0  0  0  0
    5.9442   -1.9009   -0.6149 C   0  0  0  0  0  0  0  0  0  0  0  0
    7.2663   -2.2267   -0.8247 C   0  0  0  0  0  0  0  0  0  0  0  0
    7.7265   -3.4958   -0.5061 C   0  0  0  0  0  0  0  0  0  0  0  0
    6.8175   -4.4193    0.0269 C   0  0  0  0  0  0  0  0  0  0  0  0
    5.4989   -4.0828    0.2324 C   0  0  0  0  0  0  0  0  0  0  0  0
    4.4164   -4.7766    0.7299 C   0  0  0  0  0  0  0  0  0  0  0  0
    4.2745   -6.0733    1.2039 C   0  0  0  0  0  0  0  0  0  0  0  0
    3.0462   -6.5081    1.6489 C   0  0  0  0  0  0  0  0  0  0  0  0
    1.9473   -5.6565    1.6265 C   0  0  0  0  0  0  0  0  0  0  0  0
    2.0472   -4.3763    1.1683 C   0  0  0  0  0  0  0  0  0  0  0  0
    3.2996   -3.9508    0.7206 C   0  0  0  0  0  0  0  0  0  0  0  0
    1.7970   -1.6811   -0.7461 C   0  0  0  0  0  0  0  0  0  0  0  0
    1.0428   -0.5370   -0.9119 C   0  0  0  0  0  0  0  0  0  0  0  0
    1.2208    3.2181   -0.7442 C   0  0  0  0  0  0  0  0  0  0  0  0
    2.4543    3.3917   -0.8085 O   0  0  0  0  0  0  0  0  0  0  0  0
    1.9124    8.0306   -1.4109 H   0  0  0  0  0  0  0  0  0  0  0  0
    1.5171    9.2982   -0.2020 H   0  0  0  0  0  0  0  0  0  0  0  0
    2.9990    9.4757   -1.1227 H   0  0  0  0  0  0  0  0  0  0  0  0
    3.0677    8.4701    1.3602 H   0  0  0  0  0  0  0  0  0  0  0  0
    4.2478    8.1452    0.0880 H   0  0  0  0  0  0  0  0  0  0  0  0
    3.6269    6.1662    1.3487 H   0  0  0  0  0  0  0  0  0  0  0  0
    3.2168    5.9145   -0.3482 H   0  0  0  0  0  0  0  0  0  0  0  0
    1.4948    5.0939    1.3989 H   0  0  0  0  0  0  0  0  0  0  0  0
    1.3910    6.7493    1.9947 H   0  0  0  0  0  0  0  0  0  0  0  0
    0.1071    7.4652    0.0077 H   0  0  0  0  0  0  0  0  0  0  0  0
   -0.5221    6.0281    0.7895 H   0  0  0  0  0  0  0  0  0  0  0  0
   -0.4555    5.9989   -1.7854 H   0  0  0  0  0  0  0  0  0  0  0  0
    1.3088    5.7853   -1.6445 H   0  0  0  0  0  0  0  0  0  0  0  0
   -0.7423    0.0136    1.2701 H   0  0  0  0  0  0  0  0  0  0  0  0
   -2.5234   -1.6765    1.5005 H   0  0  0  0  0  0  0  0  0  0  0  0
   -5.9744    0.4769    1.3156 H   0  0  0  0  0  0  0  0  0  0  0  0
   -8.2601    0.4087    2.1850 H   0  0  0  0  0  0  0  0  0  0  0  0
   -9.5949   -1.6139    2.0200 H   0  0  0  0  0  0  0  0  0  0  0  0
   -8.6749   -3.6285    0.9816 H   0  0  0  0  0  0  0  0  0  0  0  0
   -7.2496   -5.4242   -0.1847 H   0  0  0  0  0  0  0  0  0  0  0  0
   -5.5549   -6.7641   -1.2978 H   0  0  0  0  0  0  0  0  0  0  0  0
   -3.3982   -5.8352   -1.8247 H   0  0  0  0  0  0  0  0  0  0  0  0
   -2.8842   -3.4655   -1.2243 H   0  0  0  0  0  0  0  0  0  0  0  0
   -4.7281    0.1898   -1.6144 H   0  0  0  0  0  0  0  0  0  0  0  0
   -2.9979    1.8358   -1.8491 H   0  0  0  0  0  0  0  0  0  0  0  0
    2.8406    1.5870    0.9219 H   0  0  0  0  0  0  0  0  0  0  0  0
    4.1970   -0.3692    1.2502 H   0  0  0  0  0  0  0  0  0  0  0  0
    5.6402   -0.9002   -0.8816 H   0  0  0  0  0  0  0  0  0  0  0  0
    7.9959   -1.5422   -1.2330 H   0  0  0  0  0  0  0  0  0  0  0  0
    8.7667   -3.7497   -0.6722 H   0  0  0  0  0  0  0  0  0  0  0  0
    7.1476   -5.4013    0.2800 H   0  0  0  0  0  0  0  0  0  0  0  0
    5.1636   -6.7011    1.2011 H   0  0  0  0  0  0  0  0  0  0  0  0
    2.9481   -7.5387    2.0225 H   0  0  0  0  0  0  0  0  0  0  0  0
    0.9903   -6.0290    1.9847 H   0  0  0  0  0  0  0  0  0  0  0  0
    1.2181   -3.6774    1.1320 H   0  0  0  0  0  0  0  0  0  0  0  0
    1.4921   -2.6294   -1.2301 H   0  0  0  0  0  0  0  0  0  0  0  0
    0.1559   -0.6229   -1.5374 H   0  0  0  0  0  0  0  0  0  0  0  0
  1  2  1  0
  2  3  1  0
  3  4  1  0
  4  5  1  0
  5  6  1  0
  6  7  1  0
  7  8  1  0
  8  9  2  0
  8 10  1  0
 10 11  1  0
 11 12  2  0
 12 13  1  0
 13 14  2  0
 14 15  1  0
 15 16  1  0
 16 17  2  0
 17 18  1  0
 18 19  2  0
 19 20  1  0
 20 21  2  0
 21 22  1  0
 22 23  2  0
 23 24  1  0
 24 25  2  0
 25 26  1  0
 26 27  2  0
 14 28  1  0
 28 29  2  0
 10 30  2  0
 30 31  1  0
 31 32  2  0
 32 33  1  0
 33 34  2  0
 34 35  1  0
 35 36  1  0
 36 37  2  0
 37 38  1  0
 38 39  2  0
 39 40  1  0
 40 41  2  0
 41 42  1  0
 42 43  2  0
 43 44  1  0
 44 45  2  0
 45 46  1  0
 46 47  2  0
 34 48  1  0
 48 49  2  0
 30 50  1  0
 50 51  2  0
 50  7  1  0
 29 11  1  0
 49 31  1  0
 27 15  1  0
 47 35  1  0
 21 16  1  0
 27 22  1  0
 41 36  1  0
 47 42  1  0
  1 52  1  0
  1 53  1  0
  1 54  1  0
  2 55  1  0
  2 56  1  0
  3 57  1  0
  3 58  1  0
  4 59  1  0
  4 60  1  0
  5 61  1  0
  5 62  1  0
  6 63  1  0
  6 64  1  0
 12 65  1  0
 13 66  1  0
 17 67  1  0
 18 68  1  0
 19 69  1  0
 20 70  1  0
 23 71  1  0
 24 72  1  0
 25 73  1  0
 26 74  1  0
 28 75  1  0
 29 76  1  0
 32 77  1  0
 33 78  1  0
 37 79  1  0
 38 80  1  0
 39 81  1  0
 40 82  1  0
 43 83  1  0
 44 84  1  0
 45 85  1  0
 46 86  1  0
 48 87  1  0
 49 88  1  0
M  END
