
     RDKit          3D

 44 45  0  0  0  0  0  0  0  0999 V2000
   -3.9288    1.5565   -2.7790 C   0  0  0  0  0  0  0  0  0  0  0  0
   -4.1654    0.9280   -1.4283 C   0  0  0  0  0  0  0  0  0  0  0  0
   -3.7120   -0.4844   -1.4940 N   0  0  0  0  0  0  0  0  0  0  0  0
   -4.5064   -1.3325   -2.3267 C   0  0  0  0  0  0  0  0  0  0  0  0
   -4.0119   -2.6750   -2.6534 C   0  0  0  0  0  0  0  0  0  0  0  0
   -2.5696   -0.8050   -0.7422 C   0  0  0  0  0  0  0  0  0  0  0  0
   -2.3749   -2.0934   -0.2620 C   0  0  0  0  0  0  0  0  0  0  0  0
   -1.2552   -2.3823    0.4481 C   0  0  0  0  0  0  0  0  0  0  0  0
   -0.2867   -1.4406    0.7145 C   0  0  0  0  0  0  0  0  0  0  0  0
    0.8043   -1.7578    1.3870 C   0  0  0  0  0  0  0  0  0  0  0  0
    1.8588   -0.8428    1.7055 C   0  0  0  0  0  0  0  0  0  0  0  0
    2.9628   -1.3380    2.2256 C   0  0  0  0  0  0  0  0  0  0  0  0
    4.0879   -1.8280    2.7744 N   0  0  0  0  0  0  0  0  0  0  0  0
    1.5655    0.4522    1.2101 C   0  0  0  0  0  0  0  0  0  0  0  0
    2.4660    1.2809    1.5281 N   0  0  0  0  0  0  0  0  0  0  0  0
    3.6385    1.2703    2.2105 C   0  0  0  0  0  0  0  0  0  0  0  0
    3.8062    0.9476    3.3951 O   0  0  0  0  0  0  0  0  0  0  0  0
    4.8773    1.7107    1.4352 C   0  0  0  0  0  0  0  0  0  0  0  0
    6.1022    1.1560    2.1386 C   0  0  0  0  0  0  0  0  0  0  0  0
    4.9665    3.2340    1.6475 C   0  0  0  0  0  0  0  0  0  0  0  0
    0.5144    0.7558    0.5542 O   0  0  0  0  0  0  0  0  0  0  0  0
   -0.4333   -0.0893    0.2524 C   0  0  0  0  0  0  0  0  0  0  0  0
   -1.5907    0.1431   -0.4661 C   0  0  0  0  0  0  0  0  0  0  0  0
   -3.6091    2.6107   -2.6928 H   0  0  0  0  0  0  0  0  0  0  0  0
   -4.9115    1.5448   -3.3433 H   0  0  0  0  0  0  0  0  0  0  0  0
   -3.2429    0.9619   -3.4316 H   0  0  0  0  0  0  0  0  0  0  0  0
   -5.2491    0.9342   -1.1864 H   0  0  0  0  0  0  0  0  0  0  0  0
   -3.6724    1.4629   -0.5902 H   0  0  0  0  0  0  0  0  0  0  0  0
   -4.7515   -0.7517   -3.2638 H   0  0  0  0  0  0  0  0  0  0  0  0
   -5.5147   -1.4365   -1.8135 H   0  0  0  0  0  0  0  0  0  0  0  0
   -4.5704   -3.4887   -2.0904 H   0  0  0  0  0  0  0  0  0  0  0  0
   -2.9302   -2.8135   -2.7048 H   0  0  0  0  0  0  0  0  0  0  0  0
   -4.3524   -2.9135   -3.7309 H   0  0  0  0  0  0  0  0  0  0  0  0
   -3.1016   -2.9002   -0.3890 H   0  0  0  0  0  0  0  0  0  0  0  0
   -1.0621   -3.3859    0.8456 H   0  0  0  0  0  0  0  0  0  0  0  0
    0.9330   -2.7985    1.7769 H   0  0  0  0  0  0  0  0  0  0  0  0
    4.8129    1.5015    0.3978 H   0  0  0  0  0  0  0  0  0  0  0  0
    7.0593    1.6121    1.7845 H   0  0  0  0  0  0  0  0  0  0  0  0
    5.9719    1.4951    3.2401 H   0  0  0  0  0  0  0  0  0  0  0  0
    6.1141    0.0381    2.1658 H   0  0  0  0  0  0  0  0  0  0  0  0
    6.0006    3.5068    1.8325 H   0  0  0  0  0  0  0  0  0  0  0  0
    4.3621    3.5642    2.5505 H   0  0  0  0  0  0  0  0  0  0  0  0
    4.6144    3.7284    0.7156 H   0  0  0  0  0  0  0  0  0  0  0  0
   -1.7160    1.1620   -0.8407 H   0  0  0  0  0  0  0  0  0  0  0  0
  1  2  1  0
  2  3  1  0
  3  4  1  0
  4  5  1  0
  3  6  1  0
  6  7  2  0
  7  8  1  0
  8  9  2  0
  9 10  1  0
 10 11  2  0
 11 12  1  0
 12 13  3  0
 11 14  1  0
 14 15  2  0
 15 16  1  0
 16 17  2  0
 16 18  1  0
 18 19  1  0
 18 20  1  0
 14 21  1  0
 21 22  1  0
 22 23  2  0
 23  6  1  0
 22  9  1  0
  1 24  1  0
  1 25  1  0
  1 26  1  0
  2 27  1  0
  2 28  1  0
  4 29  1  0
  4 30  1  0
  5 31  1  0
  5 32  1  0
  5 33  1  0
  7 34  1  0
  8 35  1  0
 10 36  1  0
 18 37  1  0
 19 38  1  0
 19 39  1  0
 19 40  1  0
 20 41  1  0
 20 42  1  0
 20 43  1  0
 23 44  1  0
M  END
