
     RDKit          3D

 80 82  0  0  0  0  0  0  0  0999 V2000
   11.3251   -1.7220   -0.0826 C   0  0  0  0  0  0  0  0  0  0  0  0
   10.7631   -0.4595   -0.6930 C   0  0  0  0  0  0  0  0  0  0  0  0
   11.7142    0.6685   -0.3691 C   0  0  0  0  0  0  0  0  0  0  0  0
   10.6901   -0.6132   -2.1975 C   0  0  0  0  0  0  0  0  0  0  0  0
    9.3693   -0.1691   -0.1943 C   0  0  0  0  0  0  0  0  0  0  0  0
    9.3713    0.0027    1.2945 C   0  0  0  0  0  0  0  0  0  0  0  0
    7.9227   -0.1553    1.7546 C   0  0  0  0  0  0  0  0  0  0  0  0
    7.0992    0.6419    0.8287 C   0  0  0  0  0  0  0  0  0  0  0  0
    5.7978    0.4332    0.7499 C   0  0  0  0  0  0  0  0  0  0  0  0
    4.8299    1.4102   -0.3756 S   0  0  0  0  0  0  0  0  0  0  0  0
    3.0922    0.9573   -0.1986 C   0  0  0  0  0  0  0  0  0  0  0  0
    2.6024    0.6193    0.9606 C   0  0  0  0  0  0  0  0  0  0  0  0
    1.2370    0.2473    1.1831 C   0  0  0  0  0  0  0  0  0  0  0  0
    0.7976   -0.1011    2.4614 C   0  0  0  0  0  0  0  0  0  0  0  0
   -0.4979   -0.4657    2.7294 C   0  0  0  0  0  0  0  0  0  0  0  0
   -1.4330   -0.4998    1.7109 C   0  0  0  0  0  0  0  0  0  0  0  0
   -2.8125   -0.8851    1.9672 C   0  0  0  0  0  0  0  0  0  0  0  0
   -3.7661   -0.9497    1.0898 C   0  0  0  0  0  0  0  0  0  0  0  0
   -5.4492   -1.4441    1.5273 S   0  0  0  0  0  0  0  0  0  0  0  0
   -6.5139   -0.0175    1.3688 C   0  0  0  0  0  0  0  0  0  0  0  0
   -7.1286    0.3164    0.2665 C   0  0  0  0  0  0  0  0  0  0  0  0
   -7.9930    1.5072    0.2060 C   0  0  0  0  0  0  0  0  0  0  0  0
   -8.8505    1.4421   -1.0092 C   0  0  0  0  0  0  0  0  0  0  0  0
   -9.4281    0.1115   -1.3421 C   0  0  0  0  0  0  0  0  0  0  0  0
  -10.6934   -0.2282   -0.6031 C   0  0  0  0  0  0  0  0  0  0  0  0
  -10.5681   -0.2640    0.8774 C   0  0  0  0  0  0  0  0  0  0  0  0
  -11.2533   -1.5719   -1.0330 C   0  0  0  0  0  0  0  0  0  0  0  0
  -11.7897    0.7847   -0.9429 C   0  0  0  0  0  0  0  0  0  0  0  0
   -8.4081   -0.9768   -1.3107 C   0  0  0  0  0  0  0  0  0  0  0  0
   -7.0057   -0.4774   -1.0110 C   0  0  0  0  0  0  0  0  0  0  0  0
   -1.0185   -0.1605    0.4498 C   0  0  0  0  0  0  0  0  0  0  0  0
    0.3070    0.2100    0.1903 C   0  0  0  0  0  0  0  0  0  0  0  0
    7.7396    1.6762   -0.0117 C   0  0  0  0  0  0  0  0  0  0  0  0
    8.7099    0.9458   -0.9417 C   0  0  0  0  0  0  0  0  0  0  0  0
   10.6165   -2.5574   -0.1020 H   0  0  0  0  0  0  0  0  0  0  0  0
   12.2235   -1.9969   -0.6829 H   0  0  0  0  0  0  0  0  0  0  0  0
   11.7065   -1.5081    0.9490 H   0  0  0  0  0  0  0  0  0  0  0  0
   11.3869    1.2581    0.4875 H   0  0  0  0  0  0  0  0  0  0  0  0
   12.7238    0.2495   -0.0933 H   0  0  0  0  0  0  0  0  0  0  0  0
   11.8959    1.2693   -1.2824 H   0  0  0  0  0  0  0  0  0  0  0  0
   10.6275   -1.6724   -2.5095 H   0  0  0  0  0  0  0  0  0  0  0  0
   11.5996   -0.1871   -2.6297 H   0  0  0  0  0  0  0  0  0  0  0  0
    9.8294   -0.0343   -2.5857 H   0  0  0  0  0  0  0  0  0  0  0  0
    8.7704   -1.1037   -0.4014 H   0  0  0  0  0  0  0  0  0  0  0  0
    9.7158    1.0039    1.6191 H   0  0  0  0  0  0  0  0  0  0  0  0
    9.9375   -0.8270    1.7324 H   0  0  0  0  0  0  0  0  0  0  0  0
    7.6478   -1.2215    1.8089 H   0  0  0  0  0  0  0  0  0  0  0  0
    7.8725    0.2179    2.8132 H   0  0  0  0  0  0  0  0  0  0  0  0
    5.3009   -0.3338    1.3669 H   0  0  0  0  0  0  0  0  0  0  0  0
    2.5053    0.9826   -1.0797 H   0  0  0  0  0  0  0  0  0  0  0  0
    3.2983    0.6277    1.8029 H   0  0  0  0  0  0  0  0  0  0  0  0
    1.5304   -0.0795    3.2827 H   0  0  0  0  0  0  0  0  0  0  0  0
   -0.8065   -0.7311    3.7384 H   0  0  0  0  0  0  0  0  0  0  0  0
   -3.0782   -1.1468    2.9945 H   0  0  0  0  0  0  0  0  0  0  0  0
   -3.5686   -0.7042    0.0592 H   0  0  0  0  0  0  0  0  0  0  0  0
   -6.6419    0.5923    2.2536 H   0  0  0  0  0  0  0  0  0  0  0  0
   -8.5387    1.7026    1.1462 H   0  0  0  0  0  0  0  0  0  0  0  0
   -7.3078    2.3977    0.0834 H   0  0  0  0  0  0  0  0  0  0  0  0
   -8.1748    1.7144   -1.8795 H   0  0  0  0  0  0  0  0  0  0  0  0
   -9.6316    2.2457   -1.0386 H   0  0  0  0  0  0  0  0  0  0  0  0
   -9.7489    0.2033   -2.4283 H   0  0  0  0  0  0  0  0  0  0  0  0
   -9.6391   -0.7907    1.1954 H   0  0  0  0  0  0  0  0  0  0  0  0
  -10.7093    0.7117    1.3771 H   0  0  0  0  0  0  0  0  0  0  0  0
  -11.4010   -0.9129    1.2843 H   0  0  0  0  0  0  0  0  0  0  0  0
  -12.2815   -1.6326   -0.5665 H   0  0  0  0  0  0  0  0  0  0  0  0
  -10.6982   -2.4230   -0.6405 H   0  0  0  0  0  0  0  0  0  0  0  0
  -11.4337   -1.6131   -2.1255 H   0  0  0  0  0  0  0  0  0  0  0  0
  -12.7429    0.3073   -0.6325 H   0  0  0  0  0  0  0  0  0  0  0  0
  -11.5588    1.7093   -0.3986 H   0  0  0  0  0  0  0  0  0  0  0  0
  -11.7711    0.9340   -2.0621 H   0  0  0  0  0  0  0  0  0  0  0  0
   -8.6197   -1.7698   -0.5659 H   0  0  0  0  0  0  0  0  0  0  0  0
   -8.3151   -1.5267   -2.2931 H   0  0  0  0  0  0  0  0  0  0  0  0
   -6.3644   -1.3725   -0.8502 H   0  0  0  0  0  0  0  0  0  0  0  0
   -6.5727    0.1152   -1.8151 H   0  0  0  0  0  0  0  0  0  0  0  0
   -1.7083   -0.1710   -0.3799 H   0  0  0  0  0  0  0  0  0  0  0  0
    0.5754    0.4658   -0.8128 H   0  0  0  0  0  0  0  0  0  0  0  0
    8.3130    2.3427    0.6869 H   0  0  0  0  0  0  0  0  0  0  0  0
    7.0133    2.2798   -0.5852 H   0  0  0  0  0  0  0  0  0  0  0  0
    8.0553    0.5412   -1.7675 H   0  0  0  0  0  0  0  0  0  0  0  0
    9.4084    1.6310   -1.4345 H   0  0  0  0  0  0  0  0  0  0  0  0
  1  2  1  0
  2  3  1  0
  2  4  1  0
  2  5  1  0
  5  6  1  0
  6  7  1  0
  7  8  1  0
  8  9  2  3
  9 10  1  0
 10 11  1  0
 11 12  2  0
 12 13  1  0
 13 14  2  0
 14 15  1  0
 15 16  2  0
 16 17  1  0
 17 18  2  0
 18 19  1  0
 19 20  1  0
 20 21  2  3
 21 22  1  0
 22 23  1  0
 23 24  1  0
 24 25  1  0
 25 26  1  0
 25 27  1  0
 25 28  1  0
 24 29  1  0
 29 30  1  0
 16 31  1  0
 31 32  2  0
  8 33  1  0
 33 34  1  0
 34  5  1  0
 32 13  1  0
 30 21  1  0
  1 35  1  0
  1 36  1  0
  1 37  1  0
  3 38  1  0
  3 39  1  0
  3 40  1  0
  4 41  1  0
  4 42  1  0
  4 43  1  0
  5 44  1  0
  6 45  1  0
  6 46  1  0
  7 47  1  0
  7 48  1  0
  9 49  1  0
 11 50  1  0
 12 51  1  0
 14 52  1  0
 15 53  1  0
 17 54  1  0
 18 55  1  0
 20 56  1  0
 22 57  1  0
 22 58  1  0
 23 59  1  0
 23 60  1  0
 24 61  1  0
 26 62  1  0
 26 63  1  0
 26 64  1  0
 27 65  1  0
 27 66  1  0
 27 67  1  0
 28 68  1  0
 28 69  1  0
 28 70  1  0
 29 71  1  0
 29 72  1  0
 30 73  1  0
 30 74  1  0
 31 75  1  0
 32 76  1  0
 33 77  1  0
 33 78  1  0
 34 79  1  0
 34 80  1  0
M  END
