
     RDKit          3D

 36 38  0  0  0  0  0  0  0  0999 V2000
   -5.7541   -0.2711    0.2827 C   0  0  0  0  0  0  0  0  0  0  0  0
   -4.7027   -1.0575    0.7811 O   0  0  0  0  0  0  0  0  0  0  0  0
   -3.3767   -0.7144    0.5271 C   0  0  0  0  0  0  0  0  0  0  0  0
   -3.0687    0.4026   -0.2179 C   0  0  0  0  0  0  0  0  0  0  0  0
   -1.7429    0.7071   -0.4464 C   0  0  0  0  0  0  0  0  0  0  0  0
   -1.3318    1.7977   -1.1760 O   0  0  0  0  0  0  0  0  0  0  0  0
   -2.2068    2.7283   -1.7734 C   0  0  0  0  0  0  0  0  0  0  0  0
   -0.7443   -0.1116    0.0744 C   0  0  0  0  0  0  0  0  0  0  0  0
    0.5691    0.1773   -0.1435 C   0  0  0  0  0  0  0  0  0  0  0  0
    1.5619   -0.6336    0.3722 C   0  0  0  0  0  0  0  0  0  0  0  0
    2.9712   -0.3228    0.1378 C   0  0  0  0  0  0  0  0  0  0  0  0
    3.8960   -1.2774   -0.2331 C   0  0  0  0  0  0  0  0  0  0  0  0
    5.2203   -0.9383   -0.4446 C   0  0  0  0  0  0  0  0  0  0  0  0
    5.6751    0.3557   -0.2966 C   0  0  0  0  0  0  0  0  0  0  0  0
    4.7492    1.3084    0.0741 C   0  0  0  0  0  0  0  0  0  0  0  0
    3.4254    0.9720    0.2860 C   0  0  0  0  0  0  0  0  0  0  0  0
    1.1813   -1.7439    1.1142 C   0  0  0  0  0  0  0  0  0  0  0  0
    2.1464   -2.4749    1.5778 N   0  0  0  0  0  0  0  0  0  0  0  0
   -0.0799   -2.0035    1.3117 O   0  0  0  0  0  0  0  0  0  0  0  0
   -1.0410   -1.2343    0.8229 C   0  0  0  0  0  0  0  0  0  0  0  0
   -2.3775   -1.5112    1.0334 C   0  0  0  0  0  0  0  0  0  0  0  0
   -5.8198   -0.2860   -0.8214 H   0  0  0  0  0  0  0  0  0  0  0  0
   -6.6983   -0.6475    0.7575 H   0  0  0  0  0  0  0  0  0  0  0  0
   -5.6602    0.7933    0.6380 H   0  0  0  0  0  0  0  0  0  0  0  0
   -3.8472    1.0546   -0.6330 H   0  0  0  0  0  0  0  0  0  0  0  0
   -2.9882    2.1922   -2.3457 H   0  0  0  0  0  0  0  0  0  0  0  0
   -1.5916    3.3447   -2.4821 H   0  0  0  0  0  0  0  0  0  0  0  0
   -2.6185    3.4474   -1.0402 H   0  0  0  0  0  0  0  0  0  0  0  0
    0.8926    1.0375   -0.7190 H   0  0  0  0  0  0  0  0  0  0  0  0
    3.5604   -2.2952   -0.3540 H   0  0  0  0  0  0  0  0  0  0  0  0
    5.9510   -1.6972   -0.7385 H   0  0  0  0  0  0  0  0  0  0  0  0
    6.7199    0.5909   -0.4695 H   0  0  0  0  0  0  0  0  0  0  0  0
    5.1055    2.3194    0.1895 H   0  0  0  0  0  0  0  0  0  0  0  0
    2.6876    1.7233    0.5800 H   0  0  0  0  0  0  0  0  0  0  0  0
    1.9488   -3.3338    2.1498 H   0  0  0  0  0  0  0  0  0  0  0  0
   -2.6115   -2.3980    1.6246 H   0  0  0  0  0  0  0  0  0  0  0  0
  1  2  1  0
  2  3  1  0
  3  4  2  0
  4  5  1  0
  5  6  1  0
  6  7  1  0
  5  8  2  0
  8  9  1  0
  9 10  2  0
 10 11  1  0
 11 12  2  0
 12 13  1  0
 13 14  2  0
 14 15  1  0
 15 16  2  0
 10 17  1  0
 17 18  2  3
 17 19  1  0
 19 20  1  0
 20 21  2  0
 21  3  1  0
 20  8  1  0
 16 11  1  0
  1 22  1  0
  1 23  1  0
  1 24  1  0
  4 25  1  0
  7 26  1  0
  7 27  1  0
  7 28  1  0
  9 29  1  0
 12 30  1  0
 13 31  1  0
 14 32  1  0
 15 33  1  0
 16 34  1  0
 18 35  1  0
 21 36  1  0
M  END
