
     RDKit          3D

 47 49  0  0  0  0  0  0  0  0999 V2000
   -4.5725   -2.1757    0.5944 C   0  0  0  0  0  0  0  0  0  0  0  0
   -5.5397   -1.0043    0.5028 C   0  0  0  0  0  0  0  0  0  0  0  0
   -4.8641    0.1872    0.0466 N   0  0  0  0  0  0  0  0  0  0  0  0
   -5.6102    1.4125   -0.1110 C   0  0  0  0  0  0  0  0  0  0  0  0
   -6.0585    1.9522    1.2313 C   0  0  0  0  0  0  0  0  0  0  0  0
   -3.4844    0.1132   -0.2273 C   0  0  0  0  0  0  0  0  0  0  0  0
   -3.0267   -0.2923   -1.4792 C   0  0  0  0  0  0  0  0  0  0  0  0
   -1.6752   -0.3578   -1.7393 C   0  0  0  0  0  0  0  0  0  0  0  0
   -0.7731   -0.0250   -0.7710 C   0  0  0  0  0  0  0  0  0  0  0  0
    0.6051   -0.0738   -0.9884 C   0  0  0  0  0  0  0  0  0  0  0  0
    1.4983    0.2677   -0.0004 C   0  0  0  0  0  0  0  0  0  0  0  0
    2.9599    0.2278   -0.1963 C   0  0  0  0  0  0  0  0  0  0  0  0
    3.7892    0.6024    0.8385 C   0  0  0  0  0  0  0  0  0  0  0  0
    5.1657    0.5924    0.7414 C   0  0  0  0  0  0  0  0  0  0  0  0
    5.7458    0.1882   -0.4482 C   0  0  0  0  0  0  0  0  0  0  0  0
    7.4955    0.1938   -0.5306 S   0  0  0  0  0  6  0  0  0  0  0  0
    8.0649   -1.3921    0.0838 C   0  0  0  0  0  0  0  0  0  0  0  0
    7.9694    0.3829   -1.9438 O   0  0  0  0  0  0  0  0  0  0  0  0
    8.0081    1.2537    0.3970 O   0  0  0  0  0  0  0  0  0  0  0  0
    4.9466   -0.1922   -1.5000 C   0  0  0  0  0  0  0  0  0  0  0  0
    3.5532   -0.1702   -1.3683 C   0  0  0  0  0  0  0  0  0  0  0  0
    0.9925    0.6402    1.1530 O   0  0  0  0  0  0  0  0  0  0  0  0
   -0.2892    0.7046    1.4135 C   0  0  0  0  0  0  0  0  0  0  0  0
   -0.7042    1.0745    2.5541 O   0  0  0  0  0  0  0  0  0  0  0  0
   -1.2373    0.3770    0.4697 C   0  0  0  0  0  0  0  0  0  0  0  0
   -2.5984    0.4569    0.7750 C   0  0  0  0  0  0  0  0  0  0  0  0
   -3.7246   -1.8935    1.2618 H   0  0  0  0  0  0  0  0  0  0  0  0
   -5.1079   -3.0844    0.8976 H   0  0  0  0  0  0  0  0  0  0  0  0
   -4.1004   -2.2753   -0.4271 H   0  0  0  0  0  0  0  0  0  0  0  0
   -6.3452   -1.2733   -0.2321 H   0  0  0  0  0  0  0  0  0  0  0  0
   -6.0560   -0.8845    1.4651 H   0  0  0  0  0  0  0  0  0  0  0  0
   -5.0425    2.1729   -0.6449 H   0  0  0  0  0  0  0  0  0  0  0  0
   -6.5169    1.1738   -0.7261 H   0  0  0  0  0  0  0  0  0  0  0  0
   -5.1198    2.2338    1.7767 H   0  0  0  0  0  0  0  0  0  0  0  0
   -6.6359    2.8716    1.0971 H   0  0  0  0  0  0  0  0  0  0  0  0
   -6.6231    1.1880    1.7808 H   0  0  0  0  0  0  0  0  0  0  0  0
   -3.7203   -0.5635   -2.2720 H   0  0  0  0  0  0  0  0  0  0  0  0
   -1.3114   -0.6713   -2.7047 H   0  0  0  0  0  0  0  0  0  0  0  0
    0.9567   -0.3864   -1.9521 H   0  0  0  0  0  0  0  0  0  0  0  0
    3.3286    0.9220    1.7818 H   0  0  0  0  0  0  0  0  0  0  0  0
    5.7260    0.9025    1.6040 H   0  0  0  0  0  0  0  0  0  0  0  0
    9.1443   -1.3683    0.3213 H   0  0  0  0  0  0  0  0  0  0  0  0
    7.5173   -1.6258    1.0203 H   0  0  0  0  0  0  0  0  0  0  0  0
    7.8397   -2.1747   -0.6588 H   0  0  0  0  0  0  0  0  0  0  0  0
    5.4100   -0.5083   -2.4311 H   0  0  0  0  0  0  0  0  0  0  0  0
    2.9510   -0.4751   -2.2144 H   0  0  0  0  0  0  0  0  0  0  0  0
   -2.9305    0.7761    1.7593 H   0  0  0  0  0  0  0  0  0  0  0  0
  1  2  1  0
  2  3  1  0
  3  4  1  0
  4  5  1  0
  3  6  1  0
  6  7  2  0
  7  8  1  0
  8  9  2  0
  9 10  1  0
 10 11  2  0
 11 12  1  0
 12 13  2  0
 13 14  1  0
 14 15  2  0
 15 16  1  0
 16 17  1  0
 16 18  2  0
 16 19  2  0
 15 20  1  0
 20 21  2  0
 11 22  1  0
 22 23  1  0
 23 24  2  0
 23 25  1  0
 25 26  2  0
 26  6  1  0
 25  9  1  0
 21 12  1  0
  1 27  1  0
  1 28  1  0
  1 29  1  0
  2 30  1  0
  2 31  1  0
  4 32  1  0
  4 33  1  0
  5 34  1  0
  5 35  1  0
  5 36  1  0
  7 37  1  0
  8 38  1  0
 10 39  1  0
 13 40  1  0
 14 41  1  0
 17 42  1  0
 17 43  1  0
 17 44  1  0
 20 45  1  0
 21 46  1  0
 26 47  1  0
M  END
