
     RDKit          3D

 46 47  0  0  0  0  0  0  0  0999 V2000
   -5.5366    0.3601    1.4667 C   0  0  0  0  0  0  0  0  0  0  0  0
   -4.9400   -0.2415    0.2214 C   0  0  0  0  0  0  0  0  0  0  0  0
   -5.6401    0.3204   -1.0005 C   0  0  0  0  0  0  0  0  0  0  0  0
   -5.2008   -1.7389    0.2751 C   0  0  0  0  0  0  0  0  0  0  0  0
   -3.4935   -0.0454    0.2317 C   0  0  0  0  0  0  0  0  0  0  0  0
   -2.8940    0.8118   -0.6436 C   0  0  0  0  0  0  0  0  0  0  0  0
   -1.4955    0.9211   -0.6352 C   0  0  0  0  0  0  0  0  0  0  0  0
   -0.7310    0.1911    0.2257 C   0  0  0  0  0  0  0  0  0  0  0  0
    0.7049    0.2404    0.1808 C   0  0  0  0  0  0  0  0  0  0  0  0
    1.3495    0.4299   -1.0190 C   0  0  0  0  0  0  0  0  0  0  0  0
    2.7217    0.4341   -1.1728 C   0  0  0  0  0  0  0  0  0  0  0  0
    3.4950    0.2377   -0.0584 C   0  0  0  0  0  0  0  0  0  0  0  0
    4.9755    0.1857   -0.1600 C   0  0  0  0  0  0  0  0  0  0  0  0
    5.2885   -1.3010   -0.4052 C   0  0  0  0  0  0  0  0  0  0  0  0
    5.4406    1.0256   -1.3220 C   0  0  0  0  0  0  0  0  0  0  0  0
    5.6792    0.6734    1.0752 C   0  0  0  0  0  0  0  0  0  0  0  0
    2.8815    0.0448    1.1785 C   0  0  0  0  0  0  0  0  0  0  0  0
    1.5070    0.0488    1.2828 C   0  0  0  0  0  0  0  0  0  0  0  0
   -1.3483   -0.6666    1.1051 C   0  0  0  0  0  0  0  0  0  0  0  0
   -2.7330   -0.7867    1.1088 C   0  0  0  0  0  0  0  0  0  0  0  0
   -5.4766    1.4619    1.3678 H   0  0  0  0  0  0  0  0  0  0  0  0
   -6.6047    0.0235    1.5090 H   0  0  0  0  0  0  0  0  0  0  0  0
   -4.9908   -0.0523    2.3218 H   0  0  0  0  0  0  0  0  0  0  0  0
   -5.4727    1.4040   -1.0805 H   0  0  0  0  0  0  0  0  0  0  0  0
   -6.7450    0.2097   -0.7696 H   0  0  0  0  0  0  0  0  0  0  0  0
   -5.3790   -0.2299   -1.9043 H   0  0  0  0  0  0  0  0  0  0  0  0
   -6.0409   -2.0593   -0.3626 H   0  0  0  0  0  0  0  0  0  0  0  0
   -4.2978   -2.3002   -0.1068 H   0  0  0  0  0  0  0  0  0  0  0  0
   -5.3911   -2.0729    1.3105 H   0  0  0  0  0  0  0  0  0  0  0  0
   -3.4547    1.3816   -1.3253 H   0  0  0  0  0  0  0  0  0  0  0  0
   -1.0291    1.6199   -1.3430 H   0  0  0  0  0  0  0  0  0  0  0  0
    0.7258    0.5795   -1.8874 H   0  0  0  0  0  0  0  0  0  0  0  0
    3.1600    0.5927   -2.1814 H   0  0  0  0  0  0  0  0  0  0  0  0
    4.5603   -1.6115   -1.1833 H   0  0  0  0  0  0  0  0  0  0  0  0
    4.9629   -1.8223    0.5176 H   0  0  0  0  0  0  0  0  0  0  0  0
    6.3218   -1.4782   -0.6930 H   0  0  0  0  0  0  0  0  0  0  0  0
    5.7250    0.3811   -2.1795 H   0  0  0  0  0  0  0  0  0  0  0  0
    6.3405    1.6659   -1.0320 H   0  0  0  0  0  0  0  0  0  0  0  0
    4.7083    1.7609   -1.6877 H   0  0  0  0  0  0  0  0  0  0  0  0
    6.7711    0.7157    0.8140 H   0  0  0  0  0  0  0  0  0  0  0  0
    5.5946   -0.0387    1.9196 H   0  0  0  0  0  0  0  0  0  0  0  0
    5.3470    1.6876    1.2896 H   0  0  0  0  0  0  0  0  0  0  0  0
    3.5032   -0.1106    2.0766 H   0  0  0  0  0  0  0  0  0  0  0  0
    1.0825   -0.0997    2.2828 H   0  0  0  0  0  0  0  0  0  0  0  0
   -0.7856   -1.2750    1.8254 H   0  0  0  0  0  0  0  0  0  0  0  0
   -3.1659   -1.4779    1.8188 H   0  0  0  0  0  0  0  0  0  0  0  0
  1  2  1  0
  2  3  1  0
  2  4  1  0
  2  5  1  0
  5  6  2  0
  6  7  1  0
  7  8  2  0
  8  9  1  0
  9 10  2  0
 10 11  1  0
 11 12  2  0
 12 13  1  0
 13 14  1  0
 13 15  1  0
 13 16  1  0
 12 17  1  0
 17 18  2  0
  8 19  1  0
 19 20  2  0
 20  5  1  0
 18  9  1  0
  1 21  1  0
  1 22  1  0
  1 23  1  0
  3 24  1  0
  3 25  1  0
  3 26  1  0
  4 27  1  0
  4 28  1  0
  4 29  1  0
  6 30  1  0
  7 31  1  0
 10 32  1  0
 11 33  1  0
 14 34  1  0
 14 35  1  0
 14 36  1  0
 15 37  1  0
 15 38  1  0
 15 39  1  0
 16 40  1  0
 16 41  1  0
 16 42  1  0
 17 43  1  0
 18 44  1  0
 19 45  1  0
 20 46  1  0
M  END
