
     RDKit          3D

 42 44  0  0  0  0  0  0  0  0999 V2000
    3.2953    4.8743   -0.5744 C   0  0  0  0  0  0  0  0  0  0  0  0
    2.1136    4.0954   -0.6178 O   0  0  0  0  0  0  0  0  0  0  0  0
    2.0211    2.8634    0.0479 C   0  0  0  0  0  0  0  0  0  0  0  0
    3.0554    2.5277    0.6670 O   0  0  0  0  0  0  0  0  0  0  0  0
    0.7927    2.0735   -0.0085 C   0  0  0  0  0  0  0  0  0  0  0  0
   -0.3264    2.4654   -0.6697 N   0  0  0  0  0  0  0  0  0  0  0  0
   -1.2878    1.5686   -0.5404 C   0  0  0  0  0  0  0  0  0  0  0  0
   -2.5982    1.4215   -0.9693 C   0  0  0  0  0  0  0  0  0  0  0  0
   -3.1503    2.4437   -1.7637 N   0  0  0  0  0  0  0  0  0  0  0  0
   -3.3496    0.3388   -0.6501 N   0  0  0  0  0  0  0  0  0  0  0  0
   -2.8075   -0.6329    0.1118 C   0  0  0  0  0  0  0  0  0  0  0  0
   -3.5140   -1.8024    0.4978 N   0  0  0  0  0  0  0  0  0  0  0  0
   -3.4269   -2.9497   -0.3872 C   0  0  0  0  0  0  0  0  0  0  0  0
   -4.2832   -1.8348    1.7230 C   0  0  0  0  0  0  0  0  0  0  0  0
   -1.5561   -0.4874    0.5185 N   0  0  0  0  0  0  0  0  0  0  0  0
   -0.7650    0.5596    0.2349 C   0  0  0  0  0  0  0  0  0  0  0  0
    0.5142    0.8946    0.5470 N   0  0  0  0  0  0  0  0  0  0  0  0
    1.3590    0.0595    1.3608 C   0  0  0  0  0  0  0  0  0  0  0  0
    2.1015   -0.9764    0.6205 C   0  0  0  0  0  0  0  0  0  0  0  0
    3.3462   -0.8784    0.0947 C   0  0  0  0  0  0  0  0  0  0  0  0
    3.9804   -1.9186   -0.6006 C   0  0  0  0  0  0  0  0  0  0  0  0
    3.2961   -3.1058   -0.7558 C   0  0  0  0  0  0  0  0  0  0  0  0
    2.0281   -3.2564   -0.2397 C   0  0  0  0  0  0  0  0  0  0  0  0
    1.4476   -2.2042    0.4360 C   0  0  0  0  0  0  0  0  0  0  0  0
    2.9973    5.9477   -0.6471 H   0  0  0  0  0  0  0  0  0  0  0  0
    3.8410    4.7173    0.3760 H   0  0  0  0  0  0  0  0  0  0  0  0
    3.9136    4.6197   -1.4671 H   0  0  0  0  0  0  0  0  0  0  0  0
   -3.2991    2.3069   -2.7757 H   0  0  0  0  0  0  0  0  0  0  0  0
   -3.4109    3.3438   -1.3310 H   0  0  0  0  0  0  0  0  0  0  0  0
   -2.3531   -3.2035   -0.4719 H   0  0  0  0  0  0  0  0  0  0  0  0
   -4.0035   -3.8081    0.0350 H   0  0  0  0  0  0  0  0  0  0  0  0
   -3.8606   -2.6150   -1.3638 H   0  0  0  0  0  0  0  0  0  0  0  0
   -5.0864   -2.5930    1.6489 H   0  0  0  0  0  0  0  0  0  0  0  0
   -3.6476   -1.9711    2.6169 H   0  0  0  0  0  0  0  0  0  0  0  0
   -4.7810   -0.8473    1.8231 H   0  0  0  0  0  0  0  0  0  0  0  0
    0.7213   -0.4783    2.1164 H   0  0  0  0  0  0  0  0  0  0  0  0
    2.0568    0.6614    1.9868 H   0  0  0  0  0  0  0  0  0  0  0  0
    3.8848    0.0328    0.2135 H   0  0  0  0  0  0  0  0  0  0  0  0
    4.9702   -1.7801   -0.9952 H   0  0  0  0  0  0  0  0  0  0  0  0
    3.8111   -3.8988   -1.3002 H   0  0  0  0  0  0  0  0  0  0  0  0
    1.5161   -4.1985   -0.3767 H   0  0  0  0  0  0  0  0  0  0  0  0
    0.4437   -2.3749    0.8294 H   0  0  0  0  0  0  0  0  0  0  0  0
  1  2  1  0
  2  3  1  0
  3  4  2  0
  3  5  1  0
  5  6  2  0
  6  7  1  0
  7  8  2  0
  8  9  1  0
  8 10  1  0
 10 11  2  0
 11 12  1  0
 12 13  1  0
 12 14  1  0
 11 15  1  0
 15 16  2  0
 16 17  1  0
 17 18  1  0
 18 19  1  0
 19 20  2  0
 20 21  1  0
 21 22  2  0
 22 23  1  0
 23 24  2  0
 17  5  1  0
 24 19  1  0
 16  7  1  0
  1 25  1  0
  1 26  1  0
  1 27  1  0
  9 28  1  0
  9 29  1  0
 13 30  1  0
 13 31  1  0
 13 32  1  0
 14 33  1  0
 14 34  1  0
 14 35  1  0
 18 36  1  0
 18 37  1  0
 20 38  1  0
 21 39  1  0
 22 40  1  0
 23 41  1  0
 24 42  1  0
M  END
