
     RDKit          3D

 39 41  0  0  0  0  0  0  0  0999 V2000
    5.3202    1.2986    0.8533 C   0  0  0  0  0  0  0  0  0  0  0  0
    4.8722    0.3820   -0.1905 N   0  0  0  0  0  0  0  0  0  0  0  0
    5.8209    0.1132   -1.2551 C   0  0  0  0  0  0  0  0  0  0  0  0
    3.5811   -0.2118   -0.1464 C   0  0  0  0  0  0  0  0  0  0  0  0
    3.4486   -1.5868   -0.0538 C   0  0  0  0  0  0  0  0  0  0  0  0
    2.2149   -2.2037    0.0020 C   0  0  0  0  0  0  0  0  0  0  0  0
    1.0648   -1.4683   -0.0322 C   0  0  0  0  0  0  0  0  0  0  0  0
   -0.1656   -2.1251    0.0276 C   0  0  0  0  0  0  0  0  0  0  0  0
   -1.2894   -1.3215   -0.0088 C   0  0  0  0  0  0  0  0  0  0  0  0
   -2.5458   -1.8940    0.0508 C   0  0  0  0  0  0  0  0  0  0  0  0
   -3.6869   -1.1217    0.0218 C   0  0  0  0  0  0  0  0  0  0  0  0
   -3.6227    0.2575   -0.0679 C   0  0  0  0  0  0  0  0  0  0  0  0
   -4.8047    1.0584   -0.0916 N   0  0  0  0  0  0  0  0  0  0  0  0
   -4.7106    2.4942   -0.1738 C   0  0  0  0  0  0  0  0  0  0  0  0
   -6.1023    0.4256   -0.0354 C   0  0  0  0  0  0  0  0  0  0  0  0
   -2.3596    0.8030   -0.1262 C   0  0  0  0  0  0  0  0  0  0  0  0
   -1.1960    0.0494   -0.0991 C   0  0  0  0  0  0  0  0  0  0  0  0
    0.0221    0.5987   -0.1527 N   0  0  0  0  0  0  0  0  0  0  0  0
    1.1690   -0.0979   -0.1240 C   0  0  0  0  0  0  0  0  0  0  0  0
    2.4107    0.5265   -0.1807 C   0  0  0  0  0  0  0  0  0  0  0  0
    4.4673    1.7875    1.3560 H   0  0  0  0  0  0  0  0  0  0  0  0
    5.9562    0.7028    1.5358 H   0  0  0  0  0  0  0  0  0  0  0  0
    5.9921    2.0648    0.3755 H   0  0  0  0  0  0  0  0  0  0  0  0
    5.6531   -0.9552   -1.5858 H   0  0  0  0  0  0  0  0  0  0  0  0
    6.8699    0.0981   -0.8337 H   0  0  0  0  0  0  0  0  0  0  0  0
    5.7473    0.7708   -2.1170 H   0  0  0  0  0  0  0  0  0  0  0  0
    4.3528   -2.1825   -0.0250 H   0  0  0  0  0  0  0  0  0  0  0  0
    2.1355   -3.2828    0.0754 H   0  0  0  0  0  0  0  0  0  0  0  0
   -0.2318   -3.2125    0.0995 H   0  0  0  0  0  0  0  0  0  0  0  0
   -2.5913   -2.9708    0.1198 H   0  0  0  0  0  0  0  0  0  0  0  0
   -4.6653   -1.5745    0.0681 H   0  0  0  0  0  0  0  0  0  0  0  0
   -3.9036    2.8326    0.4992 H   0  0  0  0  0  0  0  0  0  0  0  0
   -4.5063    2.7799   -1.2396 H   0  0  0  0  0  0  0  0  0  0  0  0
   -5.6947    2.9524    0.0917 H   0  0  0  0  0  0  0  0  0  0  0  0
   -6.2795   -0.1495   -0.9647 H   0  0  0  0  0  0  0  0  0  0  0  0
   -6.0691   -0.3022    0.8233 H   0  0  0  0  0  0  0  0  0  0  0  0
   -6.8983    1.1827    0.1207 H   0  0  0  0  0  0  0  0  0  0  0  0
   -2.2545    1.8805   -0.1973 H   0  0  0  0  0  0  0  0  0  0  0  0
    2.4791    1.6018   -0.2561 H   0  0  0  0  0  0  0  0  0  0  0  0
  1  2  1  0
  2  3  1  0
  2  4  1  0
  4  5  2  0
  5  6  1  0
  6  7  2  0
  7  8  1  0
  8  9  2  0
  9 10  1  0
 10 11  2  0
 11 12  1  0
 12 13  1  0
 13 14  1  0
 13 15  1  0
 12 16  2  0
 16 17  1  0
 17 18  2  0
 18 19  1  0
 19 20  2  0
 20  4  1  0
 19  7  1  0
 17  9  1  0
  1 21  1  0
  1 22  1  0
  1 23  1  0
  3 24  1  0
  3 25  1  0
  3 26  1  0
  5 27  1  0
  6 28  1  0
  8 29  1  0
 10 30  1  0
 11 31  1  0
 14 32  1  0
 14 33  1  0
 14 34  1  0
 15 35  1  0
 15 36  1  0
 15 37  1  0
 16 38  1  0
 20 39  1  0
M  END
