
     RDKit          3D

 67 73  0  0  0  0  0  0  0  0999 V2000
   -5.3374    5.0627   -1.1915 C   0  0  0  0  0  0  0  0  0  0  0  0
   -4.9081    4.8038    0.2350 C   0  0  0  0  0  0  0  0  0  0  0  0
   -3.9237    3.6593    0.1823 C   0  0  0  0  0  0  0  0  0  0  0  0
   -2.5709    3.7228    0.0372 C   0  0  0  0  0  0  0  0  0  0  0  0
   -1.8866    2.5608    0.0167 C   0  0  0  0  0  0  0  0  0  0  0  0
   -2.5688    1.4016    0.1399 C   0  0  0  0  0  0  0  0  0  0  0  0
   -2.1872   -0.0133    0.1630 C   0  0  0  0  0  0  0  0  0  0  0  0
   -1.0227   -0.5874    0.0680 N   0  0  0  0  0  4  0  0  0  0  0  0
   -1.1681   -2.0145    0.1462 C   0  0  0  0  0  0  0  0  0  0  0  0
   -0.1403   -2.8425    0.0830 C   0  0  0  0  0  0  0  0  0  0  0  0
    1.2022   -2.3129   -0.0710 C   0  0  0  0  0  0  0  0  0  0  0  0
    2.3897   -3.0439   -0.1438 C   0  0  0  0  0  0  0  0  0  0  0  0
    2.6617   -4.3817   -0.1190 C   0  0  0  0  0  0  0  0  0  0  0  0
    3.9714   -4.7998   -0.2311 C   0  0  0  0  0  0  0  0  0  0  0  0
    4.9989   -3.8979   -0.3670 C   0  0  0  0  0  0  0  0  0  0  0  0
    6.3306   -4.3470   -0.4804 O   0  0  0  0  0  0  0  0  0  0  0  0
    6.6104   -5.7307   -0.4543 C   0  0  0  0  0  0  0  0  0  0  0  0
    4.7266   -2.5400   -0.3927 C   0  0  0  0  0  0  0  0  0  0  0  0
    3.4155   -2.0938   -0.2802 C   0  0  0  0  0  0  0  0  0  0  0  0
    2.8186   -0.8704   -0.2811 C   0  0  0  0  0  0  0  0  0  0  0  0
    3.4924    0.4398   -0.3379 C   0  0  0  0  0  0  0  0  0  0  0  0
    4.7679    0.8475   -0.1720 C   0  0  0  0  0  0  0  0  0  0  0  0
    5.0410    2.1620   -0.2514 C   0  0  0  0  0  0  0  0  0  0  0  0
    4.0052    3.0114   -0.4954 C   0  0  0  0  0  0  0  0  0  0  0  0
    4.0628    4.5189   -0.6268 C   0  0  0  0  0  0  0  0  0  0  0  0
    3.8598    5.1685    0.7291 C   0  0  0  0  0  0  0  0  0  0  0  0
    2.6823    1.9582   -0.6075 S   0  0  0  0  0  0  0  0  0  0  0  0
    1.4631   -1.0189   -0.1541 N   0  0  0  0  0  0  0  0  0  0  0  0
    0.3584    0.0276   -0.1086 B   0  0  0  0  0  4  0  0  0  0  0  0
    0.6951    0.9103    1.0071 F   0  0  0  0  0  0  0  0  0  0  0  0
    0.3437    0.7549   -1.3869 F   0  0  0  0  0  0  0  0  0  0  0  0
   -2.5930   -2.2989    0.3055 C   0  0  0  0  0  0  0  0  0  0  0  0
   -3.2403   -3.5025    0.4251 C   0  0  0  0  0  0  0  0  0  0  0  0
   -4.5998   -3.5000    0.5651 C   0  0  0  0  0  0  0  0  0  0  0  0
   -5.2826   -2.2981    0.5826 C   0  0  0  0  0  0  0  0  0  0  0  0
   -6.6602   -2.3209    0.7256 O   0  0  0  0  0  0  0  0  0  0  0  0
   -7.3468   -1.0645    0.7411 C   0  0  0  0  0  0  0  0  0  0  0  0
   -4.5738   -1.0937    0.4566 C   0  0  0  0  0  0  0  0  0  0  0  0
   -3.2005   -1.0898    0.3149 C   0  0  0  0  0  0  0  0  0  0  0  0
   -4.1945    1.9917    0.2847 S   0  0  0  0  0  0  0  0  0  0  0  0
   -4.6919    5.8297   -1.6675 H   0  0  0  0  0  0  0  0  0  0  0  0
   -6.4179    5.3734   -1.2466 H   0  0  0  0  0  0  0  0  0  0  0  0
   -5.2849    4.1183   -1.8047 H   0  0  0  0  0  0  0  0  0  0  0  0
   -5.7358    4.5467    0.8990 H   0  0  0  0  0  0  0  0  0  0  0  0
   -4.3493    5.6455    0.6796 H   0  0  0  0  0  0  0  0  0  0  0  0
   -2.0657    4.7151   -0.0600 H   0  0  0  0  0  0  0  0  0  0  0  0
   -0.7758    2.5782   -0.1011 H   0  0  0  0  0  0  0  0  0  0  0  0
   -0.3231   -3.9207    0.1486 H   0  0  0  0  0  0  0  0  0  0  0  0
    1.8429   -5.0903   -0.0115 H   0  0  0  0  0  0  0  0  0  0  0  0
    4.1949   -5.8602   -0.2119 H   0  0  0  0  0  0  0  0  0  0  0  0
    6.0979   -6.2256    0.4222 H   0  0  0  0  0  0  0  0  0  0  0  0
    6.1134   -6.1787   -1.3494 H   0  0  0  0  0  0  0  0  0  0  0  0
    7.6817   -5.9393   -0.4340 H   0  0  0  0  0  0  0  0  0  0  0  0
    5.5465   -1.8699   -0.5199 H   0  0  0  0  0  0  0  0  0  0  0  0
    5.5855    0.1240    0.0506 H   0  0  0  0  0  0  0  0  0  0  0  0
    6.0655    2.5813   -0.1279 H   0  0  0  0  0  0  0  0  0  0  0  0
    5.0145    4.8256   -1.0884 H   0  0  0  0  0  0  0  0  0  0  0  0
    3.1869    4.7831   -1.2527 H   0  0  0  0  0  0  0  0  0  0  0  0
    4.3734    6.1349    0.8141 H   0  0  0  0  0  0  0  0  0  0  0  0
    4.2189    4.4422    1.4900 H   0  0  0  0  0  0  0  0  0  0  0  0
    2.7693    5.2921    0.9234 H   0  0  0  0  0  0  0  0  0  0  0  0
   -2.7172   -4.4433    0.4126 H   0  0  0  0  0  0  0  0  0  0  0  0
   -5.1454   -4.4278    0.6621 H   0  0  0  0  0  0  0  0  0  0  0  0
   -6.9268   -0.3883    1.5183 H   0  0  0  0  0  0  0  0  0  0  0  0
   -7.1545   -0.5553   -0.2364 H   0  0  0  0  0  0  0  0  0  0  0  0
   -8.4387   -1.2159    0.8410 H   0  0  0  0  0  0  0  0  0  0  0  0
   -5.1561   -0.2138    0.4779 H   0  0  0  0  0  0  0  0  0  0  0  0
  1  2  1  0
  2  3  1  0
  3  4  2  0
  4  5  1  0
  5  6  2  0
  6  7  1  0
  7  8  2  0
  8  9  1  0
  9 10  2  0
 10 11  1  0
 11 12  2  0
 12 13  1  0
 13 14  2  0
 14 15  1  0
 15 16  1  0
 16 17  1  0
 15 18  2  0
 18 19  1  0
 19 20  2  0
 20 21  1  0
 21 22  2  0
 22 23  1  0
 23 24  2  0
 24 25  1  0
 25 26  1  0
 24 27  1  0
 20 28  1  0
 28 29  1  0
 29 30  1  0
 29 31  1  0
  9 32  1  0
 32 33  2  0
 33 34  1  0
 34 35  2  0
 35 36  1  0
 36 37  1  0
 35 38  1  0
 38 39  2  0
  6 40  1  0
 40  3  1  0
 39  7  1  0
 29  8  1  0
 39 32  1  0
 28 11  1  0
 19 12  1  0
 27 21  1  0
  1 41  1  0
  1 42  1  0
  1 43  1  0
  2 44  1  0
  2 45  1  0
  4 46  1  0
  5 47  1  0
 10 48  1  0
 13 49  1  0
 14 50  1  0
 17 51  1  0
 17 52  1  0
 17 53  1  0
 18 54  1  0
 22 55  1  0
 23 56  1  0
 25 57  1  0
 25 58  1  0
 26 59  1  0
 26 60  1  0
 26 61  1  0
 33 62  1  0
 34 63  1  0
 37 64  1  0
 37 65  1  0
 37 66  1  0
 38 67  1  0
M  CHG  2   8   1  29  -1
M  END
