
     RDKit          3D

 46 49  0  0  0  0  0  0  0  0999 V2000
    0.8986   -2.4485    3.5424 C   0  0  0  0  0  0  0  0  0  0  0  0
    0.4242   -1.4172    2.7018 O   0  0  0  0  0  0  0  0  0  0  0  0
    0.2492   -1.6314    1.3439 C   0  0  0  0  0  0  0  0  0  0  0  0
    0.5232   -2.7713    0.8977 O   0  0  0  0  0  0  0  0  0  0  0  0
   -0.2391   -0.5450    0.4959 C   0  0  0  0  0  0  0  0  0  0  0  0
    0.4966    0.4016   -0.1685 C   0  0  0  0  0  0  0  0  0  0  0  0
    1.9396    0.5496   -0.1498 C   0  0  0  0  0  0  0  0  0  0  0  0
    2.7894   -0.4261   -0.6052 C   0  0  0  0  0  0  0  0  0  0  0  0
    4.1522   -0.1801   -0.5858 C   0  0  0  0  0  0  0  0  0  0  0  0
    5.0642   -1.1202   -1.0330 C   0  0  0  0  0  0  0  0  0  0  0  0
    6.4335   -0.8968   -1.0250 C   0  0  0  0  0  0  0  0  0  0  0  0
    6.8946    0.3188   -0.5484 C   0  0  0  0  0  0  0  0  0  0  0  0
    5.9895    1.2537   -0.1034 C   0  0  0  0  0  0  0  0  0  0  0  0
    4.6373    1.0126   -0.1208 C   0  0  0  0  0  0  0  0  0  0  0  0
    3.8112    1.9265    0.3088 O   0  0  0  0  0  0  0  0  0  0  0  0
    2.5394    1.7120    0.2976 C   0  0  0  0  0  0  0  0  0  0  0  0
    1.7591    2.6124    0.7205 O   0  0  0  0  0  0  0  0  0  0  0  0
   -0.4040    1.1832   -0.8241 N   0  0  0  0  0  0  0  0  0  0  0  0
   -1.6467    0.7486   -0.5837 N   0  0  0  0  0  0  0  0  0  0  0  0
   -2.8474    1.3226   -1.1115 C   0  0  0  0  0  0  0  0  0  0  0  0
   -3.7582    1.9806   -0.3127 C   0  0  0  0  0  0  0  0  0  0  0  0
   -4.8981    2.5465   -0.8155 C   0  0  0  0  0  0  0  0  0  0  0  0
   -5.1421    2.4530   -2.1818 C   0  0  0  0  0  0  0  0  0  0  0  0
   -4.2429    1.7996   -2.9912 C   0  0  0  0  0  0  0  0  0  0  0  0
   -4.5426    1.6773   -4.7256 Cl  0  0  0  0  0  0  0  0  0  0  0  0
   -3.1181    1.2428   -2.4784 C   0  0  0  0  0  0  0  0  0  0  0  0
   -1.5939   -0.3155    0.2265 C   0  0  0  0  0  0  0  0  0  0  0  0
   -2.7010   -1.0972    0.7611 C   0  0  0  0  0  0  0  0  0  0  0  0
   -2.4450   -2.0613    1.5403 O   0  0  0  0  0  0  0  0  0  0  0  0
   -4.0318   -0.8547    0.4710 O   0  0  0  0  0  0  0  0  0  0  0  0
   -5.0819   -1.6605    1.0324 C   0  0  0  0  0  0  0  0  0  0  0  0
    0.9976   -3.4225    3.0311 H   0  0  0  0  0  0  0  0  0  0  0  0
    1.9283   -2.1688    3.9193 H   0  0  0  0  0  0  0  0  0  0  0  0
    0.2725   -2.5575    4.4745 H   0  0  0  0  0  0  0  0  0  0  0  0
    2.4428   -1.3737   -0.9787 H   0  0  0  0  0  0  0  0  0  0  0  0
    4.7192   -2.0872   -1.4130 H   0  0  0  0  0  0  0  0  0  0  0  0
    7.1523   -1.6316   -1.3774 H   0  0  0  0  0  0  0  0  0  0  0  0
    7.9439    0.5611   -0.5137 H   0  0  0  0  0  0  0  0  0  0  0  0
    6.3463    2.1949    0.2672 H   0  0  0  0  0  0  0  0  0  0  0  0
   -3.5791    2.0650    0.7480 H   0  0  0  0  0  0  0  0  0  0  0  0
   -5.5996    3.0647   -0.1560 H   0  0  0  0  0  0  0  0  0  0  0  0
   -6.0385    2.9085   -2.5505 H   0  0  0  0  0  0  0  0  0  0  0  0
   -2.3664    0.7077   -3.0645 H   0  0  0  0  0  0  0  0  0  0  0  0
   -5.1450   -2.6461    0.5701 H   0  0  0  0  0  0  0  0  0  0  0  0
   -6.0579   -1.1374    0.9330 H   0  0  0  0  0  0  0  0  0  0  0  0
   -4.9253   -1.7929    2.1350 H   0  0  0  0  0  0  0  0  0  0  0  0
  1  2  1  0
  2  3  1  0
  3  4  2  0
  3  5  1  0
  5  6  1  0
  6  7  1  0
  7  8  2  0
  8  9  1  0
  9 10  2  0
 10 11  1  0
 11 12  2  0
 12 13  1  0
 13 14  2  0
 14 15  1  0
 15 16  1  0
 16 17  2  0
  6 18  2  0
 18 19  1  0
 19 20  1  0
 20 21  2  0
 21 22  1  0
 22 23  2  0
 23 24  1  0
 24 25  1  0
 24 26  2  0
 19 27  1  0
 27 28  1  0
 28 29  2  0
 28 30  1  0
 30 31  1  0
 27  5  2  0
 16  7  1  0
 26 20  1  0
 14  9  1  0
  1 32  1  0
  1 33  1  0
  1 34  1  0
  8 35  1  0
 10 36  1  0
 11 37  1  0
 12 38  1  0
 13 39  1  0
 21 40  1  0
 22 41  1  0
 23 42  1  0
 26 43  1  0
 31 44  1  0
 31 45  1  0
 31 46  1  0
M  END
