
     RDKit          3D

 56 61  0  0  0  0  0  0  0  0999 V2000
   -1.2683    7.2566   -0.5684 C   0  0  0  0  0  0  0  0  0  0  0  0
   -1.0353    5.7878   -0.4246 C   0  0  0  0  0  0  0  0  0  0  0  0
   -0.0175    5.3166    0.3829 C   0  0  0  0  0  0  0  0  0  0  0  0
    0.2109    3.9672    0.5296 C   0  0  0  0  0  0  0  0  0  0  0  0
   -0.5709    3.0208   -0.1276 C   0  0  0  0  0  0  0  0  0  0  0  0
   -0.3199    1.6026    0.0058 C   0  0  0  0  0  0  0  0  0  0  0  0
   -1.3525    0.7894    0.2592 C   0  0  0  0  0  0  0  0  0  0  0  0
   -2.7782    1.0314    0.4458 C   0  0  0  0  0  0  0  0  0  0  0  0
   -3.3097   -0.1891    0.6560 C   0  0  0  0  0  0  0  0  0  0  0  0
   -2.2903   -1.2073    0.6128 C   0  0  0  0  0  0  0  0  0  0  0  0
   -2.4908   -2.9510    0.7677 S   0  0  0  0  0  0  0  0  0  0  0  0
   -4.0866   -3.5919    0.4451 C   0  0  0  0  0  0  0  0  0  0  0  0
   -4.3593   -4.9124    0.8186 C   0  0  0  0  0  0  0  0  0  0  0  0
   -5.5801   -5.4836    0.5590 C   0  0  0  0  0  0  0  0  0  0  0  0
   -6.5857   -4.7904   -0.0759 C   0  0  0  0  0  0  0  0  0  0  0  0
   -6.3384   -3.4962   -0.4499 C   0  0  0  0  0  0  0  0  0  0  0  0
   -5.0955   -2.9247   -0.1826 C   0  0  0  0  0  0  0  0  0  0  0  0
   -1.1414   -0.6032    0.3784 N   0  0  0  0  0  4  0  0  0  0  0  0
    0.2183   -1.2510    0.2563 B   0  0  0  0  0  4  0  0  0  0  0  0
    0.1963   -2.1768   -0.8894 F   0  0  0  0  0  0  0  0  0  0  0  0
    0.5719   -2.0500    1.4217 F   0  0  0  0  0  0  0  0  0  0  0  0
    1.3063   -0.2323   -0.0307 N   0  0  0  0  0  0  0  0  0  0  0  0
    2.6560   -0.4358   -0.2206 C   0  0  0  0  0  0  0  0  0  0  0  0
    3.4052   -2.0217   -0.1043 S   0  0  0  0  0  0  0  0  0  0  0  0
    5.1249   -2.1200    0.0532 C   0  0  0  0  0  0  0  0  0  0  0  0
    5.7015   -3.3844   -0.1677 C   0  0  0  0  0  0  0  0  0  0  0  0
    7.0466   -3.5888   -0.0388 C   0  0  0  0  0  0  0  0  0  0  0  0
    7.9018   -2.5580    0.3155 C   0  0  0  0  0  0  0  0  0  0  0  0
    7.3578   -1.3108    0.5375 C   0  0  0  0  0  0  0  0  0  0  0  0
    5.9714   -1.0996    0.4055 C   0  0  0  0  0  0  0  0  0  0  0  0
    3.2589    0.7661   -0.4595 C   0  0  0  0  0  0  0  0  0  0  0  0
    2.2334    1.7233   -0.4087 C   0  0  0  0  0  0  0  0  0  0  0  0
    1.0522    1.0702   -0.1438 C   0  0  0  0  0  0  0  0  0  0  0  0
   -1.5875    3.4844   -0.9353 C   0  0  0  0  0  0  0  0  0  0  0  0
   -1.8095    4.8520   -1.0758 C   0  0  0  0  0  0  0  0  0  0  0  0
   -0.4339    7.7867   -0.0770 H   0  0  0  0  0  0  0  0  0  0  0  0
   -1.3733    7.4961   -1.6312 H   0  0  0  0  0  0  0  0  0  0  0  0
   -2.1977    7.5348   -0.0150 H   0  0  0  0  0  0  0  0  0  0  0  0
    0.6207    6.0169    0.9183 H   0  0  0  0  0  0  0  0  0  0  0  0
    1.0200    3.6344    1.1789 H   0  0  0  0  0  0  0  0  0  0  0  0
   -3.2801    1.9780    0.4236 H   0  0  0  0  0  0  0  0  0  0  0  0
   -4.3707   -0.3076    0.8514 H   0  0  0  0  0  0  0  0  0  0  0  0
   -3.5965   -5.4789    1.3137 H   0  0  0  0  0  0  0  0  0  0  0  0
   -5.8158   -6.5101    0.8390 H   0  0  0  0  0  0  0  0  0  0  0  0
   -7.5526   -5.2790   -0.2675 H   0  0  0  0  0  0  0  0  0  0  0  0
   -7.1280   -2.9406   -0.9515 H   0  0  0  0  0  0  0  0  0  0  0  0
   -4.9493   -1.9294   -0.5196 H   0  0  0  0  0  0  0  0  0  0  0  0
    5.0771   -4.2257   -0.4458 H   0  0  0  0  0  0  0  0  0  0  0  0
    7.4780   -4.5657   -0.2098 H   0  0  0  0  0  0  0  0  0  0  0  0
    8.9433   -2.7484    0.4068 H   0  0  0  0  0  0  0  0  0  0  0  0
    7.9662   -0.4639    0.8155 H   0  0  0  0  0  0  0  0  0  0  0  0
    5.5584   -0.1372    0.6101 H   0  0  0  0  0  0  0  0  0  0  0  0
    4.2840    1.0315   -0.6788 H   0  0  0  0  0  0  0  0  0  0  0  0
    2.4017    2.7829   -0.5622 H   0  0  0  0  0  0  0  0  0  0  0  0
   -2.2468    2.8414   -1.4985 H   0  0  0  0  0  0  0  0  0  0  0  0
   -2.6007    5.1942   -1.7051 H   0  0  0  0  0  0  0  0  0  0  0  0
  1  2  1  0
  2  3  2  0
  3  4  1  0
  4  5  2  0
  5  6  1  0
  6  7  2  0
  7  8  1  0
  8  9  2  0
  9 10  1  0
 10 11  1  0
 11 12  1  0
 12 13  2  0
 13 14  1  0
 14 15  2  0
 15 16  1  0
 16 17  2  0
 10 18  2  0
 18 19  1  0
 19 20  1  0
 19 21  1  0
 19 22  1  0
 22 23  1  0
 23 24  1  0
 24 25  1  0
 25 26  2  0
 26 27  1  0
 27 28  2  0
 28 29  1  0
 29 30  2  0
 23 31  2  0
 31 32  1  0
 32 33  2  0
  5 34  1  0
 34 35  2  0
 35  2  1  0
 33  6  1  0
 18  7  1  0
 33 22  1  0
 17 12  1  0
 30 25  1  0
  1 36  1  0
  1 37  1  0
  1 38  1  0
  3 39  1  0
  4 40  1  0
  8 41  1  0
  9 42  1  0
 13 43  1  0
 14 44  1  0
 15 45  1  0
 16 46  1  0
 17 47  1  0
 26 48  1  0
 27 49  1  0
 28 50  1  0
 29 51  1  0
 30 52  1  0
 31 53  1  0
 32 54  1  0
 34 55  1  0
 35 56  1  0
M  CHG  2  18   1  19  -1
M  END
