
     RDKit          3D

 37 39  0  0  0  0  0  0  0  0999 V2000
   -5.2858    0.2798   -1.8333 C   0  0  0  0  0  0  0  0  0  0  0  0
   -3.9037    0.3984   -1.6995 O   0  0  0  0  0  0  0  0  0  0  0  0
   -3.1933   -0.2984   -0.7367 C   0  0  0  0  0  0  0  0  0  0  0  0
   -3.8833   -1.1332    0.1117 C   0  0  0  0  0  0  0  0  0  0  0  0
   -3.1556   -1.8058    1.0499 C   0  0  0  0  0  0  0  0  0  0  0  0
   -1.7637   -1.6714    1.1682 C   0  0  0  0  0  0  0  0  0  0  0  0
   -1.1192   -2.3896    2.1468 O   0  0  0  0  0  0  0  0  0  0  0  0
   -1.1024   -0.8260    0.3018 C   0  0  0  0  0  0  0  0  0  0  0  0
    0.3586   -0.6228    0.4137 C   0  0  0  0  0  0  0  0  0  0  0  0
    1.1578   -1.4770    1.0705 N   0  0  0  0  0  0  0  0  0  0  0  0
    2.4176   -1.0782    1.0564 C   0  0  0  0  0  0  0  0  0  0  0  0
    3.5601   -1.8007    1.6948 C   0  0  0  0  0  0  0  0  0  0  0  0
    2.4462    0.1079    0.3489 C   0  0  0  0  0  0  0  0  0  0  0  0
    1.1703    0.3479   -0.0221 N   0  0  0  0  0  0  0  0  0  0  0  0
    0.8365    1.5584   -0.7666 C   0  0  0  0  0  0  0  0  0  0  0  0
    1.9337    2.5969   -0.5643 C   0  0  0  0  0  0  0  0  0  0  0  0
    3.2818    1.9888   -0.9509 C   0  0  0  0  0  0  0  0  0  0  0  0
    3.6204    0.9312    0.0517 C   0  0  0  0  0  0  0  0  0  0  0  0
   -1.8169   -0.1460   -0.6439 C   0  0  0  0  0  0  0  0  0  0  0  0
   -5.7874    0.6361   -0.8967 H   0  0  0  0  0  0  0  0  0  0  0  0
   -5.5954   -0.7709   -2.0723 H   0  0  0  0  0  0  0  0  0  0  0  0
   -5.6560    0.9104   -2.6649 H   0  0  0  0  0  0  0  0  0  0  0  0
   -4.9676   -1.2634    0.0504 H   0  0  0  0  0  0  0  0  0  0  0  0
   -3.6513   -2.4902    1.7586 H   0  0  0  0  0  0  0  0  0  0  0  0
   -0.2211   -2.4878    2.4524 H   0  0  0  0  0  0  0  0  0  0  0  0
    3.3821   -2.8846    1.7474 H   0  0  0  0  0  0  0  0  0  0  0  0
    4.4299   -1.6621    0.9882 H   0  0  0  0  0  0  0  0  0  0  0  0
    3.8022   -1.4302    2.6902 H   0  0  0  0  0  0  0  0  0  0  0  0
   -0.0770    2.0666   -0.3441 H   0  0  0  0  0  0  0  0  0  0  0  0
    0.7582    1.4031   -1.8422 H   0  0  0  0  0  0  0  0  0  0  0  0
    1.9029    2.9154    0.4859 H   0  0  0  0  0  0  0  0  0  0  0  0
    1.7666    3.4638   -1.2005 H   0  0  0  0  0  0  0  0  0  0  0  0
    3.1762    1.5860   -1.9639 H   0  0  0  0  0  0  0  0  0  0  0  0
    4.0349    2.7990   -0.8810 H   0  0  0  0  0  0  0  0  0  0  0  0
    4.4423    0.3081   -0.3714 H   0  0  0  0  0  0  0  0  0  0  0  0
    4.0299    1.4269    0.9745 H   0  0  0  0  0  0  0  0  0  0  0  0
   -1.3283    0.5138   -1.3661 H   0  0  0  0  0  0  0  0  0  0  0  0
  1  2  1  0
  2  3  1  0
  3  4  2  0
  4  5  1  0
  5  6  2  0
  6  7  1  0
  6  8  1  0
  8  9  1  0
  9 10  2  0
 10 11  1  0
 11 12  1  0
 11 13  2  0
 13 14  1  0
 14 15  1  0
 15 16  1  0
 16 17  1  0
 17 18  1  0
  8 19  2  0
 19  3  1  0
 14  9  1  0
 18 13  1  0
  1 20  1  0
  1 21  1  0
  1 22  1  0
  4 23  1  0
  5 24  1  0
  7 25  1  0
 12 26  1  0
 12 27  1  0
 12 28  1  0
 15 29  1  0
 15 30  1  0
 16 31  1  0
 16 32  1  0
 17 33  1  0
 17 34  1  0
 18 35  1  0
 18 36  1  0
 19 37  1  0
M  END
