
     RDKit          3D

 45 47  0  0  0  0  0  0  0  0999 V2000
   -4.8959    3.0988    0.1430 C   0  0  0  0  0  0  0  0  0  0  0  0
   -4.2230    1.9088    0.8369 C   0  0  0  0  0  0  0  0  0  0  0  0
   -3.8108    0.9991   -0.1747 N   0  0  0  0  0  0  0  0  0  0  0  0
   -4.7398    0.1464   -0.9682 C   0  0  0  0  0  0  0  0  0  0  0  0
   -5.2104   -1.0106   -0.1605 C   0  0  0  0  0  0  0  0  0  0  0  0
   -2.4475    0.7542   -0.5020 C   0  0  0  0  0  0  0  0  0  0  0  0
   -1.9969    0.9549   -1.7971 C   0  0  0  0  0  0  0  0  0  0  0  0
   -0.7566    0.5240   -2.1947 C   0  0  0  0  0  0  0  0  0  0  0  0
    0.0465   -0.1164   -1.3010 C   0  0  0  0  0  0  0  0  0  0  0  0
    1.2824   -0.6167   -1.6807 C   0  0  0  0  0  0  0  0  0  0  0  0
    1.9752   -1.2710   -0.6719 C   0  0  0  0  0  0  0  0  0  0  0  0
    3.0005   -2.2382   -1.1782 C   0  0  0  0  0  0  0  0  0  0  0  0
    3.8070   -3.0031   -1.5911 N   0  0  0  0  0  0  0  0  0  0  0  0
    1.5752   -1.4404    0.6013 C   0  0  0  0  0  0  0  0  0  0  0  0
    2.2545   -1.9930    1.5605 N   0  0  0  0  0  0  0  0  0  0  0  0
    3.5989   -2.4677    1.2951 C   0  0  0  0  0  0  0  0  0  0  0  0
    3.9139   -3.5946    1.3135 O   0  0  0  0  0  0  0  0  0  0  0  0
    4.5365   -1.3509    0.9801 C   0  0  0  0  0  0  0  0  0  0  0  0
    5.8028   -1.6136    0.5387 C   0  0  0  0  0  0  0  0  0  0  0  0
    6.6776   -0.5544    0.1801 C   0  0  0  0  0  0  0  0  0  0  0  0
    6.2174    0.7618    0.2908 C   0  0  0  0  0  0  0  0  0  0  0  0
    7.0898    1.7174   -0.0717 F   0  0  0  0  0  0  0  0  0  0  0  0
    4.9585    1.0157    0.7280 C   0  0  0  0  0  0  0  0  0  0  0  0
    4.1028   -0.0152    1.0744 C   0  0  0  0  0  0  0  0  0  0  0  0
    0.3598   -0.9444    0.8986 O   0  0  0  0  0  0  0  0  0  0  0  0
   -0.3571   -0.3364    0.0167 C   0  0  0  0  0  0  0  0  0  0  0  0
   -1.6323    0.1276    0.3894 C   0  0  0  0  0  0  0  0  0  0  0  0
   -5.9481    2.8402   -0.0683 H   0  0  0  0  0  0  0  0  0  0  0  0
   -4.8408    3.9865    0.8127 H   0  0  0  0  0  0  0  0  0  0  0  0
   -4.3939    3.2677   -0.8246 H   0  0  0  0  0  0  0  0  0  0  0  0
   -4.9592    1.4260    1.5642 H   0  0  0  0  0  0  0  0  0  0  0  0
   -3.3564    2.2177    1.4385 H   0  0  0  0  0  0  0  0  0  0  0  0
   -5.6102    0.7438   -1.2604 H   0  0  0  0  0  0  0  0  0  0  0  0
   -4.2417   -0.1967   -1.8678 H   0  0  0  0  0  0  0  0  0  0  0  0
   -4.4317   -1.8323   -0.1704 H   0  0  0  0  0  0  0  0  0  0  0  0
   -6.0932   -1.4825   -0.6259 H   0  0  0  0  0  0  0  0  0  0  0  0
   -5.4534   -0.7715    0.8888 H   0  0  0  0  0  0  0  0  0  0  0  0
   -2.6447    1.4466   -2.5069 H   0  0  0  0  0  0  0  0  0  0  0  0
   -0.3513    0.6360   -3.1964 H   0  0  0  0  0  0  0  0  0  0  0  0
    1.6641   -0.5168   -2.6724 H   0  0  0  0  0  0  0  0  0  0  0  0
    6.1345   -2.6317    0.4490 H   0  0  0  0  0  0  0  0  0  0  0  0
    7.6760   -0.7899   -0.1686 H   0  0  0  0  0  0  0  0  0  0  0  0
    4.5793    2.0113    0.7984 H   0  0  0  0  0  0  0  0  0  0  0  0
    3.1149    0.2016    1.4181 H   0  0  0  0  0  0  0  0  0  0  0  0
   -1.9736    0.0019    1.3927 H   0  0  0  0  0  0  0  0  0  0  0  0
  1  2  1  0
  2  3  1  0
  3  4  1  0
  4  5  1  0
  3  6  1  0
  6  7  2  0
  7  8  1  0
  8  9  2  0
  9 10  1  0
 10 11  2  0
 11 12  1  0
 12 13  3  0
 11 14  1  0
 14 15  2  0
 15 16  1  0
 16 17  2  0
 16 18  1  0
 18 19  2  0
 19 20  1  0
 20 21  2  0
 21 22  1  0
 21 23  1  0
 23 24  2  0
 14 25  1  0
 25 26  1  0
 26 27  2  0
 27  6  1  0
 26  9  1  0
 24 18  1  0
  1 28  1  0
  1 29  1  0
  1 30  1  0
  2 31  1  0
  2 32  1  0
  4 33  1  0
  4 34  1  0
  5 35  1  0
  5 36  1  0
  5 37  1  0
  7 38  1  0
  8 39  1  0
 10 40  1  0
 19 41  1  0
 20 42  1  0
 23 43  1  0
 24 44  1  0
 27 45  1  0
M  END
