
     RDKit          3D

 56 60  0  0  0  0  0  0  0  0999 V2000
   -4.4383    2.1244    0.5901 C   0  0  0  0  0  0  0  0  0  0  0  0
   -4.3464    1.2478   -0.6671 C   0  0  0  0  0  0  0  0  0  0  0  0
   -5.2089    1.9823   -1.7079 C   0  0  0  0  0  0  0  0  0  0  0  0
   -2.9527    1.2889   -1.1558 C   0  0  0  0  0  0  0  0  0  0  0  0
   -2.1442    0.2065   -0.4262 C   0  0  0  0  0  0  0  0  0  0  0  0
   -0.8397    0.2994   -0.4507 N   0  0  0  0  0  0  0  0  0  0  0  0
    0.3453    0.4104   -0.5116 C   0  0  0  0  0  0  0  0  0  0  0  0
    1.4465   -0.0855    0.3042 C   0  0  0  0  0  0  0  0  0  0  0  0
    1.2573   -0.8695    1.4156 C   0  0  0  0  0  0  0  0  0  0  0  0
    2.2276   -1.3625    2.2165 C   0  0  0  0  0  0  0  0  0  0  0  0
    3.5339   -1.0536    1.8943 C   0  0  0  0  0  0  0  0  0  0  0  0
    4.5249   -1.5582    2.7132 C   0  0  0  0  0  0  0  0  0  0  0  0
    5.8189   -1.2467    2.3864 C   0  0  0  0  0  0  0  0  0  0  0  0
    6.1197   -0.4613    1.2846 C   0  0  0  0  0  0  0  0  0  0  0  0
    7.4465   -0.1884    1.0176 C   0  0  0  0  0  0  0  0  0  0  0  0
    7.7256    0.5914   -0.0775 C   0  0  0  0  0  0  0  0  0  0  0  0
    6.7274    1.0868   -0.8837 C   0  0  0  0  0  0  0  0  0  0  0  0
    5.3945    0.7952   -0.5908 C   0  0  0  0  0  0  0  0  0  0  0  0
    4.3975    1.2893   -1.3953 C   0  0  0  0  0  0  0  0  0  0  0  0
    3.0759    1.0052   -1.1118 C   0  0  0  0  0  0  0  0  0  0  0  0
    2.7632    0.2290   -0.0247 C   0  0  0  0  0  0  0  0  0  0  0  0
    3.7937   -0.2654    0.7841 C   0  0  0  0  0  0  0  0  0  0  0  0
    5.1133    0.0240    0.4917 C   0  0  0  0  0  0  0  0  0  0  0  0
   -2.7867   -1.0771   -0.9551 C   0  0  0  0  0  0  0  0  0  0  0  0
   -4.1384   -1.1476   -0.3375 C   0  0  0  0  0  0  0  0  0  0  0  0
   -3.9581   -1.6449    1.0970 C   0  0  0  0  0  0  0  0  0  0  0  0
   -4.8937   -2.2776   -1.0578 C   0  0  0  0  0  0  0  0  0  0  0  0
   -4.9347    0.0108   -0.4228 N   0  0  0  0  0  0  0  0  0  0  0  0
   -6.1615   -0.1874   -0.9396 O   0  0  0  0  0  1  0  0  0  0  0  0
   -4.1692    3.1638    0.2325 H   0  0  0  0  0  0  0  0  0  0  0  0
   -5.4645    2.1671    0.9890 H   0  0  0  0  0  0  0  0  0  0  0  0
   -3.7688    1.7588    1.3672 H   0  0  0  0  0  0  0  0  0  0  0  0
   -5.0020    3.0530   -1.7254 H   0  0  0  0  0  0  0  0  0  0  0  0
   -4.9375    1.5889   -2.7255 H   0  0  0  0  0  0  0  0  0  0  0  0
   -6.2723    1.8122   -1.5154 H   0  0  0  0  0  0  0  0  0  0  0  0
   -2.4869    2.2581   -0.8549 H   0  0  0  0  0  0  0  0  0  0  0  0
   -2.8176    1.1760   -2.2486 H   0  0  0  0  0  0  0  0  0  0  0  0
   -2.5446    0.2994    0.6435 H   0  0  0  0  0  0  0  0  0  0  0  0
    0.5887    1.0451   -1.4235 H   0  0  0  0  0  0  0  0  0  0  0  0
    0.2157   -1.1069    1.6574 H   0  0  0  0  0  0  0  0  0  0  0  0
    2.0241   -1.9763    3.0806 H   0  0  0  0  0  0  0  0  0  0  0  0
    4.2674   -2.1678    3.5660 H   0  0  0  0  0  0  0  0  0  0  0  0
    6.6119   -1.6271    3.0079 H   0  0  0  0  0  0  0  0  0  0  0  0
    8.2102   -0.5933    1.6733 H   0  0  0  0  0  0  0  0  0  0  0  0
    8.7511    0.8201   -0.3080 H   0  0  0  0  0  0  0  0  0  0  0  0
    6.9431    1.6936   -1.7357 H   0  0  0  0  0  0  0  0  0  0  0  0
    4.6851    1.9003   -2.2474 H   0  0  0  0  0  0  0  0  0  0  0  0
    2.3283    1.4121   -1.7682 H   0  0  0  0  0  0  0  0  0  0  0  0
   -2.8836   -0.9517   -2.0468 H   0  0  0  0  0  0  0  0  0  0  0  0
   -2.2164   -1.9751   -0.6637 H   0  0  0  0  0  0  0  0  0  0  0  0
   -4.5340   -2.5536    1.3143 H   0  0  0  0  0  0  0  0  0  0  0  0
   -2.8956   -1.8796    1.3194 H   0  0  0  0  0  0  0  0  0  0  0  0
   -4.2748   -0.8554    1.8273 H   0  0  0  0  0  0  0  0  0  0  0  0
   -5.6462   -2.6431   -0.3258 H   0  0  0  0  0  0  0  0  0  0  0  0
   -5.4390   -1.8967   -1.9324 H   0  0  0  0  0  0  0  0  0  0  0  0
   -4.1806   -3.0876   -1.2941 H   0  0  0  0  0  0  0  0  0  0  0  0
  1  2  1  0
  2  3  1  0
  2  4  1  0
  4  5  1  0
  5  6  1  0
  6  7  2  0
  7  8  1  0
  8  9  2  0
  9 10  1  0
 10 11  2  0
 11 12  1  0
 12 13  2  0
 13 14  1  0
 14 15  2  0
 15 16  1  0
 16 17  2  0
 17 18  1  0
 18 19  2  0
 19 20  1  0
 20 21  2  0
 21 22  1  0
 22 23  2  0
  5 24  1  0
 24 25  1  0
 25 26  1  0
 25 27  1  0
 25 28  1  0
 28 29  1  0
 28  2  1  0
 21  8  1  0
 22 11  1  0
 23 14  1  0
 23 18  1  0
  1 30  1  0
  1 31  1  0
  1 32  1  0
  3 33  1  0
  3 34  1  0
  3 35  1  0
  4 36  1  0
  4 37  1  0
  5 38  1  0
  7 39  1  0
  9 40  1  0
 10 41  1  0
 12 42  1  0
 13 43  1  0
 15 44  1  0
 16 45  1  0
 17 46  1  0
 19 47  1  0
 20 48  1  0
 24 49  1  0
 24 50  1  0
 26 51  1  0
 26 52  1  0
 26 53  1  0
 27 54  1  0
 27 55  1  0
 27 56  1  0
M  RAD  1  29   2
M  END
