
     RDKit          3D

 87 97  0  0  0  0  0  0  0  0999 V2000
    2.3275    2.5746   -0.6154 C   0  0  0  0  0  0  0  0  0  0  0  0
    1.6913    1.2542   -0.8993 C   0  0  0  0  0  0  0  0  0  0  0  0
    2.3868    0.0876   -0.6768 C   0  0  0  0  0  0  0  0  0  0  0  0
    3.7449    0.0847   -0.1669 C   0  0  0  0  0  0  0  0  0  0  0  0
    4.4445    1.1851    0.1310 N   0  0  0  0  0  0  0  0  0  0  0  0
    5.6880    1.1863    0.5979 C   0  0  0  0  0  0  0  0  0  0  0  0
    6.4625    2.3718    0.9267 C   0  0  0  0  0  0  0  0  0  0  0  0
    7.7518    2.3047    1.4082 C   0  0  0  0  0  0  0  0  0  0  0  0
    8.4797    3.4356    1.7177 C   0  0  0  0  0  0  0  0  0  0  0  0
    7.9276    4.6969    1.5512 C   0  0  0  0  0  0  0  0  0  0  0  0
    6.6338    4.7612    1.0679 C   0  0  0  0  0  0  0  0  0  0  0  0
    5.9036    3.6325    0.7576 C   0  0  0  0  0  0  0  0  0  0  0  0
    6.2743   -0.0264    0.7793 N   0  0  0  0  0  0  0  0  0  0  0  0
    5.6229   -1.1658    0.4982 C   0  0  0  0  0  0  0  0  0  0  0  0
    6.2307   -2.4742    0.6846 C   0  0  0  0  0  0  0  0  0  0  0  0
    5.5762   -3.6422    0.4014 C   0  0  0  0  0  0  0  0  0  0  0  0
    6.1678   -4.8738    0.5843 C   0  0  0  0  0  0  0  0  0  0  0  0
    7.4649   -4.8938    1.0710 C   0  0  0  0  0  0  0  0  0  0  0  0
    8.1437   -3.7321    1.3632 C   0  0  0  0  0  0  0  0  0  0  0  0
    7.5285   -2.5135    1.1710 C   0  0  0  0  0  0  0  0  0  0  0  0
    4.3675   -1.1142    0.0284 N   0  0  0  0  0  0  0  0  0  0  0  0
    1.7823   -1.1265   -0.9444 C   0  0  0  0  0  0  0  0  0  0  0  0
    0.4961   -1.2032   -1.4304 C   0  0  0  0  0  0  0  0  0  0  0  0
   -0.1761   -0.0182   -1.6436 C   0  0  0  0  0  0  0  0  0  0  0  0
   -1.5073   -0.0499   -2.1451 N   0  0  0  0  0  0  0  0  0  0  0  0
   -1.8404    0.0408   -3.4402 C   0  0  0  0  0  0  0  0  0  0  0  0
   -1.1121    0.1812   -4.6262 C   0  0  0  0  0  0  0  0  0  0  0  0
   -1.7896    0.2453   -5.8335 C   0  0  0  0  0  0  0  0  0  0  0  0
   -3.1622    0.1773   -5.9312 C   0  0  0  0  0  0  0  0  0  0  0  0
   -3.8723    0.0370   -4.7349 C   0  0  0  0  0  0  0  0  0  0  0  0
   -3.2130   -0.0282   -3.5258 C   0  0  0  0  0  0  0  0  0  0  0  0
   -3.6731   -0.1633   -2.2266 C   0  0  0  0  0  0  0  0  0  0  0  0
   -4.9607   -0.2800   -1.6910 C   0  0  0  0  0  0  0  0  0  0  0  0
   -5.0809   -0.4011   -0.3328 C   0  0  0  0  0  0  0  0  0  0  0  0
   -3.9962   -0.4128    0.5209 C   0  0  0  0  0  0  0  0  0  0  0  0
   -2.7417   -0.3016    0.0276 C   0  0  0  0  0  0  0  0  0  0  0  0
   -2.6025   -0.1766   -1.3633 C   0  0  0  0  0  0  0  0  0  0  0  0
   -4.2988   -0.5557    2.0068 C   0  0  0  0  0  0  0  0  0  0  0  0
   -5.1684   -1.7636    2.0203 C   0  0  0  0  0  0  0  0  0  0  0  0
   -4.9207   -2.8404    2.8295 C   0  0  0  0  0  0  0  0  0  0  0  0
   -5.7889   -3.9433    2.7839 C   0  0  0  0  0  0  0  0  0  0  0  0
   -6.8660   -3.9086    1.9245 C   0  0  0  0  0  0  0  0  0  0  0  0
   -7.1163   -2.8016    1.0959 C   0  0  0  0  0  0  0  0  0  0  0  0
   -6.2525   -1.7456    1.1650 C   0  0  0  0  0  0  0  0  0  0  0  0
   -6.4363   -0.5309    0.3271 C   0  0  0  0  0  0  0  0  0  0  0  0
   -6.3714    0.5764    1.3536 C   0  0  0  0  0  0  0  0  0  0  0  0
   -7.3456    1.5047    1.3955 C   0  0  0  0  0  0  0  0  0  0  0  0
   -7.2266    2.5042    2.3688 C   0  0  0  0  0  0  0  0  0  0  0  0
   -6.1507    2.5100    3.2292 C   0  0  0  0  0  0  0  0  0  0  0  0
   -5.1516    1.5369    3.1677 C   0  0  0  0  0  0  0  0  0  0  0  0
   -5.2809    0.5612    2.2071 C   0  0  0  0  0  0  0  0  0  0  0  0
    0.3944    1.2071   -1.3883 C   0  0  0  0  0  0  0  0  0  0  0  0
   -0.3027    2.5048   -1.6073 C   0  0  0  0  0  0  0  0  0  0  0  0
    1.6065    3.4072   -0.7651 H   0  0  0  0  0  0  0  0  0  0  0  0
    3.2310    2.6806   -1.2278 H   0  0  0  0  0  0  0  0  0  0  0  0
    2.5779    2.5823    0.4653 H   0  0  0  0  0  0  0  0  0  0  0  0
    8.1785    1.3015    1.5359 H   0  0  0  0  0  0  0  0  0  0  0  0
    9.5010    3.3326    2.0974 H   0  0  0  0  0  0  0  0  0  0  0  0
    8.5118    5.5762    1.7987 H   0  0  0  0  0  0  0  0  0  0  0  0
    6.1856    5.7422    0.9314 H   0  0  0  0  0  0  0  0  0  0  0  0
    4.8881    3.6769    0.3781 H   0  0  0  0  0  0  0  0  0  0  0  0
    4.5516   -3.5552    0.0191 H   0  0  0  0  0  0  0  0  0  0  0  0
    5.6389   -5.7822    0.3565 H   0  0  0  0  0  0  0  0  0  0  0  0
    7.9360   -5.8653    1.2170 H   0  0  0  0  0  0  0  0  0  0  0  0
    9.1575   -3.7890    1.7423 H   0  0  0  0  0  0  0  0  0  0  0  0
    8.0854   -1.6041    1.4093 H   0  0  0  0  0  0  0  0  0  0  0  0
    2.2975   -2.0718   -0.7823 H   0  0  0  0  0  0  0  0  0  0  0  0
    0.0183   -2.1756   -1.6424 H   0  0  0  0  0  0  0  0  0  0  0  0
   -0.0266    0.2378   -4.5819 H   0  0  0  0  0  0  0  0  0  0  0  0
   -1.1919    0.3539   -6.7277 H   0  0  0  0  0  0  0  0  0  0  0  0
   -3.6474    0.2316   -6.8954 H   0  0  0  0  0  0  0  0  0  0  0  0
   -4.9392   -0.0156   -4.8132 H   0  0  0  0  0  0  0  0  0  0  0  0
   -5.8061   -0.2698   -2.3688 H   0  0  0  0  0  0  0  0  0  0  0  0
   -1.8692   -0.3061    0.6554 H   0  0  0  0  0  0  0  0  0  0  0  0
   -3.4478   -0.5565    2.6339 H   0  0  0  0  0  0  0  0  0  0  0  0
   -4.0865   -2.8777    3.5011 H   0  0  0  0  0  0  0  0  0  0  0  0
   -5.6417   -4.8086    3.3937 H   0  0  0  0  0  0  0  0  0  0  0  0
   -7.5513   -4.7357    1.8635 H   0  0  0  0  0  0  0  0  0  0  0  0
   -7.9756   -2.8259    0.4401 H   0  0  0  0  0  0  0  0  0  0  0  0
   -7.2676   -0.5037   -0.3265 H   0  0  0  0  0  0  0  0  0  0  0  0
   -8.1727    1.4997    0.7335 H   0  0  0  0  0  0  0  0  0  0  0  0
   -7.9956    3.2716    2.4324 H   0  0  0  0  0  0  0  0  0  0  0  0
   -6.0647    3.2755    3.9705 H   0  0  0  0  0  0  0  0  0  0  0  0
   -4.2977    1.5296    3.8400 H   0  0  0  0  0  0  0  0  0  0  0  0
    0.2631    3.1882   -2.2729 H   0  0  0  0  0  0  0  0  0  0  0  0
   -1.3488    2.3576   -1.9466 H   0  0  0  0  0  0  0  0  0  0  0  0
   -0.3841    3.0230   -0.6281 H   0  0  0  0  0  0  0  0  0  0  0  0
  1  2  1  0
  2  3  2  0
  3  4  1  0
  4  5  2  0
  5  6  1  0
  6  7  1  0
  7  8  2  0
  8  9  1  0
  9 10  2  0
 10 11  1  0
 11 12  2  0
  6 13  2  0
 13 14  1  0
 14 15  1  0
 15 16  2  0
 16 17  1  0
 17 18  2  0
 18 19  1  0
 19 20  2  0
 14 21  2  0
  3 22  1  0
 22 23  2  0
 23 24  1  0
 24 25  1  0
 25 26  1  0
 26 27  2  0
 27 28  1  0
 28 29  2  0
 29 30  1  0
 30 31  2  0
 31 32  1  0
 32 33  2  0
 33 34  1  0
 34 35  2  0
 35 36  1  0
 36 37  2  0
 35 38  1  0
 38 39  1  0
 39 40  2  0
 40 41  1  0
 41 42  2  0
 42 43  1  0
 43 44  2  0
 44 45  1  0
 45 46  1  0
 46 47  2  0
 47 48  1  0
 48 49  2  0
 49 50  1  0
 50 51  2  0
 24 52  2  0
 52 53  1  0
 52  2  1  0
 21  4  1  0
 37 25  1  0
 51 38  1  0
 12  7  1  0
 20 15  1  0
 31 26  1  0
 37 32  1  0
 44 39  1  0
 51 46  1  0
 45 34  1  0
  1 54  1  0
  1 55  1  0
  1 56  1  0
  8 57  1  0
  9 58  1  0
 10 59  1  0
 11 60  1  0
 12 61  1  0
 16 62  1  0
 17 63  1  0
 18 64  1  0
 19 65  1  0
 20 66  1  0
 22 67  1  0
 23 68  1  0
 27 69  1  0
 28 70  1  0
 29 71  1  0
 30 72  1  0
 33 73  1  0
 36 74  1  0
 38 75  1  0
 40 76  1  0
 41 77  1  0
 42 78  1  0
 43 79  1  0
 45 80  1  0
 47 81  1  0
 48 82  1  0
 49 83  1  0
 50 84  1  0
 53 85  1  0
 53 86  1  0
 53 87  1  0
M  END
