
     RDKit          3D

 35 36  0  0  0  0  0  0  0  0999 V2000
    4.0719   -1.3474   -0.7597 C   0  0  0  0  0  0  0  0  0  0  0  0
    2.9879   -0.4710   -0.1986 C   0  0  0  0  0  0  0  0  0  0  0  0
    1.7395   -0.7396   -0.1142 N   0  0  0  0  0  0  0  0  0  0  0  0
    1.0247    0.3383    0.4753 C   0  0  0  0  0  0  0  0  0  0  0  0
   -0.2763    0.3971    0.7120 C   0  0  0  0  0  0  0  0  0  0  0  0
   -1.1744   -0.7016    0.3747 C   0  0  0  0  0  0  0  0  0  0  0  0
   -0.8011   -2.0219    0.5067 C   0  0  0  0  0  0  0  0  0  0  0  0
   -1.6669   -3.0457    0.1816 C   0  0  0  0  0  0  0  0  0  0  0  0
   -2.9182   -2.6961   -0.2797 C   0  0  0  0  0  0  0  0  0  0  0  0
   -3.3174   -1.3849   -0.4212 C   0  0  0  0  0  0  0  0  0  0  0  0
   -2.4304   -0.3726   -0.0884 C   0  0  0  0  0  0  0  0  0  0  0  0
   -2.8063    0.9787   -0.2227 N   0  0  0  0  0  0  0  0  0  0  0  0
   -2.0622    1.8339   -1.1054 C   0  0  0  0  0  0  0  0  0  0  0  0
   -3.9222    1.5000    0.5155 C   0  0  0  0  0  0  0  0  0  0  0  0
    2.0361    1.3565    0.7586 C   0  0  0  0  0  0  0  0  0  0  0  0
    1.8222    2.4720    1.2833 O   0  0  0  0  0  0  0  0  0  0  0  0
    3.2809    0.8232    0.3226 N   0  0  0  0  0  0  0  0  0  0  0  0
    4.5658    1.4929    0.4090 C   0  0  0  0  0  0  0  0  0  0  0  0
    4.5758   -0.8690   -1.6245 H   0  0  0  0  0  0  0  0  0  0  0  0
    3.6678   -2.3191   -1.0941 H   0  0  0  0  0  0  0  0  0  0  0  0
    4.8776   -1.4801    0.0115 H   0  0  0  0  0  0  0  0  0  0  0  0
   -0.6578    1.3076    1.1737 H   0  0  0  0  0  0  0  0  0  0  0  0
    0.1920   -2.2491    0.8729 H   0  0  0  0  0  0  0  0  0  0  0  0
   -1.3649   -4.0984    0.2885 H   0  0  0  0  0  0  0  0  0  0  0  0
   -3.5856   -3.5167   -0.5309 H   0  0  0  0  0  0  0  0  0  0  0  0
   -4.2981   -1.1517   -0.7833 H   0  0  0  0  0  0  0  0  0  0  0  0
   -2.6875    1.9700   -2.0357 H   0  0  0  0  0  0  0  0  0  0  0  0
   -1.9799    2.8589   -0.6578 H   0  0  0  0  0  0  0  0  0  0  0  0
   -1.0714    1.4212   -1.3859 H   0  0  0  0  0  0  0  0  0  0  0  0
   -3.9855    2.5765    0.3733 H   0  0  0  0  0  0  0  0  0  0  0  0
   -3.8270    1.2692    1.6074 H   0  0  0  0  0  0  0  0  0  0  0  0
   -4.8269    0.9477    0.1667 H   0  0  0  0  0  0  0  0  0  0  0  0
    4.6256    2.3972   -0.2195 H   0  0  0  0  0  0  0  0  0  0  0  0
    5.3452    0.7965    0.0253 H   0  0  0  0  0  0  0  0  0  0  0  0
    4.8471    1.7272    1.4629 H   0  0  0  0  0  0  0  0  0  0  0  0
  1  2  1  0
  2  3  2  0
  3  4  1  0
  4  5  2  0
  5  6  1  0
  6  7  2  0
  7  8  1  0
  8  9  2  0
  9 10  1  0
 10 11  2  0
 11 12  1  0
 12 13  1  0
 12 14  1  0
  4 15  1  0
 15 16  2  0
 15 17  1  0
 17 18  1  0
 17  2  1  0
 11  6  1  0
  1 19  1  0
  1 20  1  0
  1 21  1  0
  5 22  1  0
  7 23  1  0
  8 24  1  0
  9 25  1  0
 10 26  1  0
 13 27  1  0
 13 28  1  0
 13 29  1  0
 14 30  1  0
 14 31  1  0
 14 32  1  0
 18 33  1  0
 18 34  1  0
 18 35  1  0
M  END
