
 OpenBabel03022211363D

 43 47  0  0  0  0  0  0  0  0999 V2000
    1.2852   -0.8075    0.3822 C   0  0  0  0  0  0  0  0  0  0  0  0
    0.5501   -1.8744   -0.4714 C   0  0  0  0  0  0  0  0  0  0  0  0
   -0.9488   -1.7069   -0.1511 C   0  0  0  0  0  0  0  0  0  0  0  0
    1.0925   -3.3467   -0.3117 C   0  0  1  0  0  0  0  0  0  0  0  0
    0.2984   -4.1341   -1.3667 C   0  0  0  0  0  0  0  0  0  0  0  0
    0.1737   -3.1118   -2.5307 C   0  0  0  0  0  0  0  0  0  0  0  0
    0.9007   -1.8326   -1.9959 C   0  0  1  0  0  0  0  0  0  0  0  0
    0.5870   -0.5898   -2.7990 C   0  0  0  0  0  0  0  0  0  0  0  0
    2.3886   -2.1854   -1.8796 C   0  0  0  0  0  0  0  0  0  0  0  0
    3.4466   -1.4464   -2.2452 N   0  0  0  0  0  0  0  0  0  0  0  0
    4.6215   -1.8299   -1.6883 C   0  0  0  0  0  0  0  0  0  0  0  0
    5.7492   -1.0219   -1.8237 C   0  0  0  0  0  0  0  0  0  0  0  0
    6.9848   -1.3571   -1.2443 C   0  0  0  0  0  0  0  0  0  0  0  0
    8.0817   -0.3720   -1.1919 C   0  0  0  0  0  0  0  0  0  0  0  0
    7.9924    1.0036   -1.0436 C   0  0  0  0  0  0  0  0  0  0  0  0
    9.2650    1.6372   -0.9344 C   0  0  0  0  0  0  0  0  0  0  0  0
   10.2959    0.7311   -1.0152 C   0  0  0  0  0  0  0  0  0  0  0  0
    9.7290   -0.8632   -1.2470 S   0  0  0  0  0  0  0  0  0  0  0  0
    7.0978   -2.6033   -0.6180 C   0  0  0  0  0  0  0  0  0  0  0  0
    5.9718   -3.4087   -0.4351 C   0  0  0  0  0  0  0  0  0  0  0  0
    4.7182   -3.0049   -0.8756 C   0  0  0  0  0  0  0  0  0  0  0  0
    3.6350   -3.6811   -0.4554 N   0  0  0  0  0  0  0  0  0  0  0  0
    2.4831   -3.1930   -0.9246 C   0  0  0  0  0  0  0  0  0  0  0  0
    1.0311   -0.9173    1.4417 H   0  0  0  0  0  0  0  0  0  0  0  0
    0.9902    0.2010    0.0693 H   0  0  0  0  0  0  0  0  0  0  0  0
    2.3765   -0.8513    0.3262 H   0  0  0  0  0  0  0  0  0  0  0  0
   -1.3273   -0.7642   -0.5615 H   0  0  0  0  0  0  0  0  0  0  0  0
   -1.5854   -2.5051   -0.5365 H   0  0  0  0  0  0  0  0  0  0  0  0
   -1.1104   -1.6786    0.9330 H   0  0  0  0  0  0  0  0  0  0  0  0
    1.0902   -3.7536    0.7018 H   0  0  0  0  0  0  0  0  0  0  0  0
   -0.6900   -4.4246   -0.9945 H   0  0  0  0  0  0  0  0  0  0  0  0
    0.8090   -5.0483   -1.6898 H   0  0  0  0  0  0  0  0  0  0  0  0
    0.6353   -3.5016   -3.4450 H   0  0  0  0  0  0  0  0  0  0  0  0
   -0.8837   -2.9174   -2.7457 H   0  0  0  0  0  0  0  0  0  0  0  0
   -0.4853   -0.3695   -2.7916 H   0  0  0  0  0  0  0  0  0  0  0  0
    1.1179    0.2880   -2.4190 H   0  0  0  0  0  0  0  0  0  0  0  0
    0.8859   -0.7247   -3.8453 H   0  0  0  0  0  0  0  0  0  0  0  0
    5.6284   -0.0742   -2.3446 H   0  0  0  0  0  0  0  0  0  0  0  0
    7.0518    1.5372   -0.9737 H   0  0  0  0  0  0  0  0  0  0  0  0
    9.4136    2.7005   -0.7896 H   0  0  0  0  0  0  0  0  0  0  0  0
   11.3573    0.9280   -0.9508 H   0  0  0  0  0  0  0  0  0  0  0  0
    8.0403   -2.9405   -0.1939 H   0  0  0  0  0  0  0  0  0  0  0  0
    6.0603   -4.3436    0.1102 H   0  0  0  0  0  0  0  0  0  0  0  0
  1  2  1  0  0  0  0
  1 24  1  0  0  0  0
  1 25  1  0  0  0  0
  1 26  1  0  0  0  0
  2  3  1  0  0  0  0
  2  4  1  0  0  0  0
  3 27  1  0  0  0  0
  3 28  1  0  0  0  0
  3 29  1  0  0  0  0
  4  5  1  0  0  0  0
  4 30  1  1  0  0  0
  5  6  1  0  0  0  0
  5 31  1  0  0  0  0
  5 32  1  0  0  0  0
  6  7  1  0  0  0  0
  6 33  1  0  0  0  0
  6 34  1  0  0  0  0
  7  8  1  6  0  0  0
  7  9  1  0  0  0  0
  7  2  1  0  0  0  0
  8 35  1  0  0  0  0
  8 36  1  0  0  0  0
  8 37  1  0  0  0  0
  9 10  2  0  0  0  0
 10 11  1  0  0  0  0
 11 12  2  0  0  0  0
 12 13  1  0  0  0  0
 12 38  1  0  0  0  0
 13 14  1  0  0  0  0
 13 19  2  0  0  0  0
 14 15  2  0  0  0  0
 15 16  1  0  0  0  0
 15 39  1  0  0  0  0
 16 17  2  0  0  0  0
 16 40  1  0  0  0  0
 17 18  1  0  0  0  0
 17 41  1  0  0  0  0
 18 14  1  0  0  0  0
 19 20  1  0  0  0  0
 19 42  1  0  0  0  0
 20 21  2  0  0  0  0
 20 43  1  0  0  0  0
 21 22  1  0  0  0  0
 21 11  1  0  0  0  0
 22 23  2  0  0  0  0
 23  9  1  0  0  0  0
 23  4  1  0  0  0  0
M  END
