
     RDKit          3D

 46 50  0  0  0  0  0  0  0  0999 V2000
   -3.4401    3.0172    0.5023 C   0  0  0  0  0  0  0  0  0  0  0  0
   -3.6694    2.0577   -0.4462 C   0  0  0  0  0  0  0  0  0  0  0  0
   -2.7467    1.0484   -0.5729 C   0  0  0  0  0  0  0  0  0  0  0  0
   -1.6154    0.9793    0.2178 C   0  0  0  0  0  0  0  0  0  0  0  0
   -0.6864   -0.1112    0.0281 N   0  0  0  0  0  0  0  0  0  0  0  0
   -1.2461   -1.4098   -0.1105 C   0  0  0  0  0  0  0  0  0  0  0  0
   -2.2560   -1.8031    0.7537 C   0  0  0  0  0  0  0  0  0  0  0  0
   -2.8454   -3.0431    0.6848 C   0  0  0  0  0  0  0  0  0  0  0  0
   -2.3773   -3.8898   -0.2997 C   0  0  0  0  0  0  0  0  0  0  0  0
   -1.3765   -3.5387   -1.1780 C   0  0  0  0  0  0  0  0  0  0  0  0
   -0.7959   -2.2680   -1.0820 C   0  0  0  0  0  0  0  0  0  0  0  0
    0.7107    0.0951   -0.0075 C   0  0  0  0  0  0  0  0  0  0  0  0
    1.5262   -0.0962    1.0894 C   0  0  0  0  0  0  0  0  0  0  0  0
    0.9909   -0.5165    2.2842 C   0  0  0  0  0  0  0  0  0  0  0  0
    1.7610   -0.7283    3.4239 C   0  0  0  0  0  0  0  0  0  0  0  0
    3.1217   -0.5141    3.3774 C   0  0  0  0  0  0  0  0  0  0  0  0
    3.6574   -0.0926    2.1785 C   0  0  0  0  0  0  0  0  0  0  0  0
    2.8986    0.1191    1.0452 C   0  0  0  0  0  0  0  0  0  0  0  0
    3.4584    0.5376   -0.1359 C   0  0  0  0  0  0  0  0  0  0  0  0
    2.6863    0.7383   -1.2429 C   0  0  0  0  0  0  0  0  0  0  0  0
    3.2654    1.1670   -2.4386 C   0  0  0  0  0  0  0  0  0  0  0  0
    2.5171    1.3813   -3.5695 C   0  0  0  0  0  0  0  0  0  0  0  0
    1.1534    1.1626   -3.5083 C   0  0  0  0  0  0  0  0  0  0  0  0
    0.5725    0.7390   -2.3314 C   0  0  0  0  0  0  0  0  0  0  0  0
    1.3068    0.5194   -1.1897 C   0  0  0  0  0  0  0  0  0  0  0  0
   -1.3804    1.9304    1.1638 C   0  0  0  0  0  0  0  0  0  0  0  0
   -2.3160    2.9608    1.2980 C   0  0  0  0  0  0  0  0  0  0  0  0
   -4.1433    3.8447    0.6461 H   0  0  0  0  0  0  0  0  0  0  0  0
   -4.5414    2.0833   -1.0782 H   0  0  0  0  0  0  0  0  0  0  0  0
   -2.9203    0.2890   -1.3177 H   0  0  0  0  0  0  0  0  0  0  0  0
   -2.5806   -1.1032    1.5004 H   0  0  0  0  0  0  0  0  0  0  0  0
   -3.6324   -3.3399    1.3637 H   0  0  0  0  0  0  0  0  0  0  0  0
   -2.8355   -4.8849   -0.3711 H   0  0  0  0  0  0  0  0  0  0  0  0
   -1.0544   -4.2426   -1.9243 H   0  0  0  0  0  0  0  0  0  0  0  0
   -0.0120   -2.0213   -1.7835 H   0  0  0  0  0  0  0  0  0  0  0  0
   -0.0824   -0.6797    2.3022 H   0  0  0  0  0  0  0  0  0  0  0  0
    1.2536   -1.0579    4.3155 H   0  0  0  0  0  0  0  0  0  0  0  0
    3.7314   -0.6776    4.2654 H   0  0  0  0  0  0  0  0  0  0  0  0
    4.7210    0.0911    2.0855 H   0  0  0  0  0  0  0  0  0  0  0  0
    4.5122    0.7102   -0.1958 H   0  0  0  0  0  0  0  0  0  0  0  0
    4.3181    1.3237   -2.4434 H   0  0  0  0  0  0  0  0  0  0  0  0
    2.9794    1.7085   -4.4719 H   0  0  0  0  0  0  0  0  0  0  0  0
    0.5053    1.3162   -4.3758 H   0  0  0  0  0  0  0  0  0  0  0  0
   -0.4849    0.5782   -2.3165 H   0  0  0  0  0  0  0  0  0  0  0  0
   -0.4952    1.9133    1.8113 H   0  0  0  0  0  0  0  0  0  0  0  0
   -2.1131    3.7071    2.0541 H   0  0  0  0  0  0  0  0  0  0  0  0
  1  2  2  0
  2  3  1  0
  3  4  2  0
  4  5  1  0
  5  6  1  0
  6  7  2  0
  7  8  1  0
  8  9  2  0
  9 10  1  0
 10 11  2  0
  5 12  1  0
 12 13  1  0
 13 14  2  0
 14 15  1  0
 15 16  2  0
 16 17  1  0
 17 18  2  0
 18 19  1  0
 19 20  2  0
 20 21  1  0
 21 22  2  0
 22 23  1  0
 23 24  2  0
 24 25  1  0
  4 26  1  0
 26 27  2  0
 27  1  1  0
 11  6  1  0
 25 12  2  0
 18 13  1  0
 25 20  1  0
  1 28  1  0
  2 29  1  0
  3 30  1  0
  7 31  1  0
  8 32  1  0
  9 33  1  0
 10 34  1  0
 11 35  1  0
 14 36  1  0
 15 37  1  0
 16 38  1  0
 17 39  1  0
 19 40  1  0
 21 41  1  0
 22 42  1  0
 23 43  1  0
 24 44  1  0
 26 45  1  0
 27 46  1  0
M  END
