
     RDKit          3D

 80 84  0  0  0  0  0  0  0  0999 V2000
  -12.1625    1.7381    0.7237 C   0  0  0  0  0  0  0  0  0  0  0  0
  -10.7978    1.0195    0.7366 C   0  0  0  0  0  0  0  0  0  0  0  0
   -9.7127    1.9795    1.0140 C   0  0  0  0  0  0  0  0  0  0  0  0
   -8.3306    1.5033    1.1720 C   0  0  0  0  0  0  0  0  0  0  0  0
   -7.6196    0.7721    0.1136 C   0  0  0  0  0  0  0  0  0  0  0  0
   -8.0720   -0.5769   -0.2904 C   0  0  0  0  0  0  0  0  0  0  0  0
   -7.2183   -1.1932   -1.4003 C   0  0  0  0  0  0  0  0  0  0  0  0
   -5.8402   -1.3935   -0.9373 C   0  0  0  0  0  0  0  0  0  0  0  0
   -5.5304   -1.2084    0.2603 O   0  0  0  0  0  0  0  0  0  0  0  0
   -4.8202   -1.7952   -1.8040 O   0  0  0  0  0  0  0  0  0  0  0  0
   -3.5446   -1.9582   -1.2999 C   0  0  0  0  0  0  0  0  0  0  0  0
   -3.1574   -3.1586   -0.7842 C   0  0  0  0  0  0  0  0  0  0  0  0
   -1.8519   -3.2778   -0.2828 C   0  0  0  0  0  0  0  0  0  0  0  0
   -1.0042   -2.2004   -0.3207 C   0  0  0  0  0  0  0  0  0  0  0  0
    0.2889   -2.3288    0.1792 C   0  0  0  0  0  0  0  0  0  0  0  0
    0.7404   -3.5209    0.7174 C   0  0  0  0  0  0  0  0  0  0  0  0
    2.0204   -3.6306    1.2091 C   0  0  0  0  0  0  0  0  0  0  0  0
    2.8508   -2.5346    1.1587 C   0  0  0  0  0  0  0  0  0  0  0  0
    2.4038   -1.3473    0.6235 C   0  0  0  0  0  0  0  0  0  0  0  0
    3.2564   -0.2596    0.5877 C   0  0  0  0  0  0  0  0  0  0  0  0
    4.5345   -0.4251    1.0955 O   0  0  0  0  0  0  0  0  0  0  0  0
    5.6660   -0.6049    0.3454 C   0  0  0  0  0  0  0  0  0  0  0  0
    5.5343   -0.6125   -0.9040 O   0  0  0  0  0  0  0  0  0  0  0  0
    7.0162   -0.7888    0.9142 C   0  0  0  0  0  0  0  0  0  0  0  0
    8.1183   -0.8619   -0.0845 C   0  0  0  0  0  0  0  0  0  0  0  0
    8.3015    0.3541   -0.9306 C   0  0  0  0  0  0  0  0  0  0  0  0
    8.6024    1.5522   -0.0510 C   0  0  0  0  0  0  0  0  0  0  0  0
    9.8307    1.3826    0.7782 C   0  0  0  0  0  0  0  0  0  0  0  0
   11.0932    1.1512   -0.0010 C   0  0  0  0  0  0  0  0  0  0  0  0
   12.2674    1.0018    0.9342 C   0  0  0  0  0  0  0  0  0  0  0  0
    2.8309    0.9336    0.0618 C   0  0  0  0  0  0  0  0  0  0  0  0
    1.5487    1.0754   -0.4412 C   0  0  0  0  0  0  0  0  0  0  0  0
    0.7034    0.0141   -0.4110 C   0  0  0  0  0  0  0  0  0  0  0  0
   -0.5944    0.1379   -0.9116 C   0  0  0  0  0  0  0  0  0  0  0  0
   -1.0314    1.3294   -1.4423 C   0  0  0  0  0  0  0  0  0  0  0  0
   -2.3150    1.4256   -1.9290 C   0  0  0  0  0  0  0  0  0  0  0  0
   -3.1475    0.3221   -1.8772 C   0  0  0  0  0  0  0  0  0  0  0  0
   -2.6898   -0.8679   -1.3393 C   0  0  0  0  0  0  0  0  0  0  0  0
   -1.4039   -0.9768   -0.8480 C   0  0  0  0  0  0  0  0  0  0  0  0
    1.1147   -1.2133    0.1210 C   0  0  0  0  0  0  0  0  0  0  0  0
  -12.8539    1.0710    0.1742 H   0  0  0  0  0  0  0  0  0  0  0  0
  -12.0030    2.6582    0.1590 H   0  0  0  0  0  0  0  0  0  0  0  0
  -12.5429    1.8568    1.7433 H   0  0  0  0  0  0  0  0  0  0  0  0
  -10.7666    0.1444    1.3569 H   0  0  0  0  0  0  0  0  0  0  0  0
  -10.7072    0.7103   -0.3514 H   0  0  0  0  0  0  0  0  0  0  0  0
   -9.6694    2.7828    0.1855 H   0  0  0  0  0  0  0  0  0  0  0  0
   -9.9359    2.6175    1.9252 H   0  0  0  0  0  0  0  0  0  0  0  0
   -8.2036    0.9775    2.1850 H   0  0  0  0  0  0  0  0  0  0  0  0
   -7.7086    2.4594    1.3720 H   0  0  0  0  0  0  0  0  0  0  0  0
   -7.5813    1.4096   -0.8469 H   0  0  0  0  0  0  0  0  0  0  0  0
   -6.5132    0.7384    0.3769 H   0  0  0  0  0  0  0  0  0  0  0  0
   -9.1316   -0.6935   -0.5344 H   0  0  0  0  0  0  0  0  0  0  0  0
   -7.9250   -1.3193    0.5754 H   0  0  0  0  0  0  0  0  0  0  0  0
   -7.7137   -2.1516   -1.7323 H   0  0  0  0  0  0  0  0  0  0  0  0
   -7.1704   -0.4868   -2.2742 H   0  0  0  0  0  0  0  0  0  0  0  0
   -3.7944   -4.0364   -0.7340 H   0  0  0  0  0  0  0  0  0  0  0  0
   -1.5248   -4.2082    0.1277 H   0  0  0  0  0  0  0  0  0  0  0  0
    0.1406   -4.4084    0.7849 H   0  0  0  0  0  0  0  0  0  0  0  0
    2.4190   -4.5504    1.6422 H   0  0  0  0  0  0  0  0  0  0  0  0
    3.8723   -2.5685    1.5348 H   0  0  0  0  0  0  0  0  0  0  0  0
    7.2128   -0.0792    1.7470 H   0  0  0  0  0  0  0  0  0  0  0  0
    6.9923   -1.7990    1.4234 H   0  0  0  0  0  0  0  0  0  0  0  0
    9.0625   -1.0190    0.4828 H   0  0  0  0  0  0  0  0  0  0  0  0
    7.9630   -1.7593   -0.7254 H   0  0  0  0  0  0  0  0  0  0  0  0
    9.1281    0.1576   -1.6495 H   0  0  0  0  0  0  0  0  0  0  0  0
    7.4090    0.5950   -1.5273 H   0  0  0  0  0  0  0  0  0  0  0  0
    8.7079    2.4413   -0.6769 H   0  0  0  0  0  0  0  0  0  0  0  0
    7.7430    1.6352    0.6699 H   0  0  0  0  0  0  0  0  0  0  0  0
    9.9755    2.3586    1.3278 H   0  0  0  0  0  0  0  0  0  0  0  0
    9.7108    0.6326    1.6020 H   0  0  0  0  0  0  0  0  0  0  0  0
   11.0458    0.2195   -0.6092 H   0  0  0  0  0  0  0  0  0  0  0  0
   11.2466    1.9776   -0.7097 H   0  0  0  0  0  0  0  0  0  0  0  0
   13.0086    1.7840    0.6714 H   0  0  0  0  0  0  0  0  0  0  0  0
   12.7929    0.0249    0.7835 H   0  0  0  0  0  0  0  0  0  0  0  0
   11.9825    1.1700    1.9942 H   0  0  0  0  0  0  0  0  0  0  0  0
    3.4928    1.7699    0.0368 H   0  0  0  0  0  0  0  0  0  0  0  0
    1.2701    2.0126   -0.8346 H   0  0  0  0  0  0  0  0  0  0  0  0
   -0.4347    2.2085   -1.5087 H   0  0  0  0  0  0  0  0  0  0  0  0
   -2.7035    2.3570   -2.3610 H   0  0  0  0  0  0  0  0  0  0  0  0
   -4.1713    0.3910   -2.2624 H   0  0  0  0  0  0  0  0  0  0  0  0
  1  2  1  0
  2  3  1  0
  3  4  1  0
  4  5  1  0
  5  6  1  0
  6  7  1  0
  7  8  1  0
  8  9  2  0
  8 10  1  0
 10 11  1  0
 11 12  2  0
 12 13  1  0
 13 14  2  0
 14 15  1  0
 15 16  2  0
 16 17  1  0
 17 18  2  0
 18 19  1  0
 19 20  1  0
 20 21  1  0
 21 22  1  0
 22 23  2  0
 22 24  1  0
 24 25  1  0
 25 26  1  0
 26 27  1  0
 27 28  1  0
 28 29  1  0
 29 30  1  0
 20 31  2  0
 31 32  1  0
 32 33  2  0
 33 34  1  0
 34 35  1  0
 35 36  2  0
 36 37  1  0
 37 38  2  0
 38 39  1  0
 33 40  1  0
 38 11  1  0
 39 14  1  0
 40 15  1  0
 40 19  2  0
 39 34  2  0
  1 41  1  0
  1 42  1  0
  1 43  1  0
  2 44  1  0
  2 45  1  0
  3 46  1  0
  3 47  1  0
  4 48  1  0
  4 49  1  0
  5 50  1  0
  5 51  1  0
  6 52  1  0
  6 53  1  0
  7 54  1  0
  7 55  1  0
 12 56  1  0
 13 57  1  0
 16 58  1  0
 17 59  1  0
 18 60  1  0
 24 61  1  0
 24 62  1  0
 25 63  1  0
 25 64  1  0
 26 65  1  0
 26 66  1  0
 27 67  1  0
 27 68  1  0
 28 69  1  0
 28 70  1  0
 29 71  1  0
 29 72  1  0
 30 73  1  0
 30 74  1  0
 30 75  1  0
 31 76  1  0
 32 77  1  0
 35 78  1  0
 36 79  1  0
 37 80  1  0
M  END
