
     RDKit          3D

 99107  0  0  0  0  0  0  0  0999 V2000
   -0.3340   -1.6895    4.6579 C   0  0  0  0  0  0  0  0  0  0  0  0
   -1.3331   -0.8580    3.9461 C   0  0  0  0  0  0  0  0  0  0  0  0
   -0.8277    0.3307    3.2374 C   0  0  0  0  0  0  0  0  0  0  0  0
    0.1360    0.2892    2.1673 C   0  0  0  0  0  0  0  0  0  0  0  0
   -0.0646   -0.3988    0.8796 C   0  0  0  0  0  0  0  0  0  0  0  0
   -0.2642   -1.8853    0.8819 C   0  0  0  0  0  0  0  0  0  0  0  0
    0.8851   -2.6749    1.4404 C   0  0  0  0  0  0  0  0  0  0  0  0
    0.5651   -4.1662    1.4676 C   0  0  0  0  0  0  0  0  0  0  0  0
    1.7104   -4.9589    2.0286 C   0  0  0  0  0  0  0  0  0  0  0  0
    1.0513    0.0011   -0.0307 C   0  0  0  0  0  0  0  0  0  0  0  0
    2.4412   -0.1401    0.0690 C   0  0  0  0  0  0  0  0  0  0  0  0
    3.3214    0.3018   -0.8966 C   0  0  0  0  0  0  0  0  0  0  0  0
    4.7603    0.1323   -0.7254 C   0  0  0  0  0  0  0  0  0  0  0  0
    5.2869    0.1594    0.5552 C   0  0  0  0  0  0  0  0  0  0  0  0
    6.6448    0.0210    0.7800 C   0  0  0  0  0  0  0  0  0  0  0  0
    7.5203   -0.1484   -0.2615 C   0  0  0  0  0  0  0  0  0  0  0  0
    8.9226   -0.3111    0.0764 C   0  0  0  0  0  0  0  0  0  0  0  0
    9.9235    0.3748   -0.4355 C   0  0  0  0  0  0  0  0  0  0  0  0
   11.3365    0.1948   -0.0871 C   0  0  0  0  0  0  0  0  0  0  0  0
   11.7455   -0.6782    0.7344 O   0  0  0  0  0  0  0  0  0  0  0  0
   12.1432    1.1623   -0.8286 C   0  0  0  0  0  0  0  0  0  0  0  0
   13.5206    1.3707   -0.8239 C   0  0  0  0  0  0  0  0  0  0  0  0
   14.0593    2.3670   -1.6242 C   0  0  0  0  0  0  0  0  0  0  0  0
   13.2437    3.1387   -2.4120 C   0  0  0  0  0  0  0  0  0  0  0  0
   11.8676    2.9212   -2.4084 C   0  0  0  0  0  0  0  0  0  0  0  0
   11.3201    1.9340   -1.6173 C   0  0  0  0  0  0  0  0  0  0  0  0
    9.9304    1.4706   -1.3969 C   0  0  0  0  0  0  0  0  0  0  0  0
    8.9327    1.9650   -1.9637 O   0  0  0  0  0  0  0  0  0  0  0  0
    7.0194   -0.1796   -1.5427 C   0  0  0  0  0  0  0  0  0  0  0  0
    5.6530   -0.0395   -1.7575 C   0  0  0  0  0  0  0  0  0  0  0  0
    2.7957    0.9184   -2.0253 C   0  0  0  0  0  0  0  0  0  0  0  0
    1.4300    1.0615   -2.1283 C   0  0  0  0  0  0  0  0  0  0  0  0
    0.5439    0.6103   -1.1409 C   0  0  0  0  0  0  0  0  0  0  0  0
   -0.8993    0.6856   -1.0011 C   0  0  0  0  0  0  0  0  0  0  0  0
   -1.8701    1.2388   -1.8535 C   0  0  0  0  0  0  0  0  0  0  0  0
   -3.2127    1.2041   -1.4617 C   0  0  0  0  0  0  0  0  0  0  0  0
   -3.5788    0.6381   -0.2621 C   0  0  0  0  0  0  0  0  0  0  0  0
   -4.9875    0.6408    0.0945 C   0  0  0  0  0  0  0  0  0  0  0  0
   -5.8261    1.6637   -0.2926 C   0  0  0  0  0  0  0  0  0  0  0  0
   -7.1554    1.6078    0.0523 C   0  0  0  0  0  0  0  0  0  0  0  0
   -7.6269    0.5395    0.7721 C   0  0  0  0  0  0  0  0  0  0  0  0
   -9.0461    0.4747    1.0862 C   0  0  0  0  0  0  0  0  0  0  0  0
   -9.9836    0.5632    0.1908 C   0  0  0  0  0  0  0  0  0  0  0  0
  -11.4243    0.5068    0.4860 C   0  0  0  0  0  0  0  0  0  0  0  0
  -11.9786    0.3991    1.6099 O   0  0  0  0  0  0  0  0  0  0  0  0
  -12.1311    0.5985   -0.7710 C   0  0  0  0  0  0  0  0  0  0  0  0
  -13.4944    0.5964   -1.0853 C   0  0  0  0  0  0  0  0  0  0  0  0
  -13.8607    0.7010   -2.4002 C   0  0  0  0  0  0  0  0  0  0  0  0
  -12.9662    0.8091   -3.4415 C   0  0  0  0  0  0  0  0  0  0  0  0
  -11.6192    0.8083   -3.1010 C   0  0  0  0  0  0  0  0  0  0  0  0
  -11.2228    0.7045   -1.7897 C   0  0  0  0  0  0  0  0  0  0  0  0
   -9.8590    0.6868   -1.2426 C   0  0  0  0  0  0  0  0  0  0  0  0
   -8.8053    0.7668   -1.9619 O   0  0  0  0  0  0  0  0  0  0  0  0
   -6.7642   -0.4744    1.1500 C   0  0  0  0  0  0  0  0  0  0  0  0
   -5.4414   -0.4444    0.8224 C   0  0  0  0  0  0  0  0  0  0  0  0
   -2.6109    0.1066    0.5468 C   0  0  0  0  0  0  0  0  0  0  0  0
   -1.2630    0.1309    0.1741 C   0  0  0  0  0  0  0  0  0  0  0  0
    0.6890   -1.2383    4.6832 H   0  0  0  0  0  0  0  0  0  0  0  0
   -0.6338   -1.7993    5.7167 H   0  0  0  0  0  0  0  0  0  0  0  0
   -0.2528   -2.7302    4.2729 H   0  0  0  0  0  0  0  0  0  0  0  0
   -2.0995   -0.5454    4.7498 H   0  0  0  0  0  0  0  0  0  0  0  0
   -1.9676   -1.5280    3.3220 H   0  0  0  0  0  0  0  0  0  0  0  0
   -1.6814    1.0543    2.9752 H   0  0  0  0  0  0  0  0  0  0  0  0
   -0.3430    0.9611    4.0730 H   0  0  0  0  0  0  0  0  0  0  0  0
    1.1539    0.0054    2.6086 H   0  0  0  0  0  0  0  0  0  0  0  0
    0.3609    1.3757    1.8842 H   0  0  0  0  0  0  0  0  0  0  0  0
   -0.3276   -2.2429   -0.2125 H   0  0  0  0  0  0  0  0  0  0  0  0
   -1.1930   -2.2544    1.2967 H   0  0  0  0  0  0  0  0  0  0  0  0
    1.2415   -2.3906    2.4309 H   0  0  0  0  0  0  0  0  0  0  0  0
    1.7859   -2.6212    0.7742 H   0  0  0  0  0  0  0  0  0  0  0  0
    0.3785   -4.5484    0.4472 H   0  0  0  0  0  0  0  0  0  0  0  0
   -0.3769   -4.3019    2.0395 H   0  0  0  0  0  0  0  0  0  0  0  0
    1.3358   -5.9681    2.2623 H   0  0  0  0  0  0  0  0  0  0  0  0
    2.0862   -4.4967    2.9620 H   0  0  0  0  0  0  0  0  0  0  0  0
    2.5234   -4.9811    1.2934 H   0  0  0  0  0  0  0  0  0  0  0  0
    2.8614   -0.6002    0.9451 H   0  0  0  0  0  0  0  0  0  0  0  0
    4.6523    0.2879    1.3985 H   0  0  0  0  0  0  0  0  0  0  0  0
    7.0148    0.0491    1.8156 H   0  0  0  0  0  0  0  0  0  0  0  0
    9.1576   -1.0819    0.8294 H   0  0  0  0  0  0  0  0  0  0  0  0
   14.1322    0.7456   -0.1923 H   0  0  0  0  0  0  0  0  0  0  0  0
   15.1433    2.5382   -1.6257 H   0  0  0  0  0  0  0  0  0  0  0  0
   13.7031    3.9160   -3.0314 H   0  0  0  0  0  0  0  0  0  0  0  0
   11.2166    3.5187   -3.0206 H   0  0  0  0  0  0  0  0  0  0  0  0
    7.6759   -0.3292   -2.3923 H   0  0  0  0  0  0  0  0  0  0  0  0
    5.2447   -0.0621   -2.7622 H   0  0  0  0  0  0  0  0  0  0  0  0
    3.4827    1.2635   -2.7822 H   0  0  0  0  0  0  0  0  0  0  0  0
    0.9969    1.5347   -2.9916 H   0  0  0  0  0  0  0  0  0  0  0  0
   -1.5477    1.6739   -2.7861 H   0  0  0  0  0  0  0  0  0  0  0  0
   -3.9191    1.6441   -2.1560 H   0  0  0  0  0  0  0  0  0  0  0  0
   -5.4046    2.4654   -0.8499 H   0  0  0  0  0  0  0  0  0  0  0  0
   -7.7830    2.4623   -0.2550 H   0  0  0  0  0  0  0  0  0  0  0  0
   -9.3648    0.3421    2.1350 H   0  0  0  0  0  0  0  0  0  0  0  0
  -14.2024    0.5121   -0.2829 H   0  0  0  0  0  0  0  0  0  0  0  0
  -14.9222    0.6967   -2.6139 H   0  0  0  0  0  0  0  0  0  0  0  0
  -13.2880    0.8911   -4.4688 H   0  0  0  0  0  0  0  0  0  0  0  0
  -10.9172    0.8924   -3.9199 H   0  0  0  0  0  0  0  0  0  0  0  0
   -7.1990   -1.2871    1.7167 H   0  0  0  0  0  0  0  0  0  0  0  0
   -4.7524   -1.2361    1.1141 H   0  0  0  0  0  0  0  0  0  0  0  0
   -2.9200   -0.3354    1.4829 H   0  0  0  0  0  0  0  0  0  0  0  0
  1  2  1  0
  2  3  1  0
  3  4  1  0
  4  5  1  0
  5  6  1  0
  6  7  1  0
  7  8  1  0
  8  9  1  0
  5 10  1  0
 10 11  2  0
 11 12  1  0
 12 13  1  0
 13 14  2  0
 14 15  1  0
 15 16  2  0
 16 17  1  0
 17 18  2  3
 18 19  1  0
 19 20  2  0
 19 21  1  0
 21 22  2  0
 22 23  1  0
 23 24  2  0
 24 25  1  0
 25 26  2  0
 26 27  1  0
 27 28  2  0
 16 29  1  0
 29 30  2  0
 12 31  2  0
 31 32  1  0
 32 33  2  0
 33 34  1  0
 34 35  2  0
 35 36  1  0
 36 37  2  0
 37 38  1  0
 38 39  2  0
 39 40  1  0
 40 41  2  0
 41 42  1  0
 42 43  2  3
 43 44  1  0
 44 45  2  0
 44 46  1  0
 46 47  2  0
 47 48  1  0
 48 49  2  0
 49 50  1  0
 50 51  2  0
 51 52  1  0
 52 53  2  0
 41 54  1  0
 54 55  2  0
 37 56  1  0
 56 57  2  0
 57  5  1  0
 33 10  1  0
 57 34  1  0
 30 13  1  0
 55 38  1  0
 27 18  1  0
 52 43  1  0
 26 21  1  0
 51 46  1  0
  1 58  1  0
  1 59  1  0
  1 60  1  0
  2 61  1  0
  2 62  1  0
  3 63  1  0
  3 64  1  0
  4 65  1  0
  4 66  1  0
  6 67  1  0
  6 68  1  0
  7 69  1  0
  7 70  1  0
  8 71  1  0
  8 72  1  0
  9 73  1  0
  9 74  1  0
  9 75  1  0
 11 76  1  0
 14 77  1  0
 15 78  1  0
 17 79  1  0
 22 80  1  0
 23 81  1  0
 24 82  1  0
 25 83  1  0
 29 84  1  0
 30 85  1  0
 31 86  1  0
 32 87  1  0
 35 88  1  0
 36 89  1  0
 39 90  1  0
 40 91  1  0
 42 92  1  0
 47 93  1  0
 48 94  1  0
 49 95  1  0
 50 96  1  0
 54 97  1  0
 55 98  1  0
 56 99  1  0
M  END
