
     RDKit          3D

 48 54  0  0  0  0  0  0  0  0999 V2000
    0.8862   -2.4356   -0.6642 F   0  0  0  0  0  0  0  0  0  0  0  0
    0.4033   -1.4844    0.3491 B   0  0  0  0  0  4  0  0  0  0  0  0
    0.5237   -2.0793    1.6945 F   0  0  0  0  0  0  0  0  0  0  0  0
    1.3051   -0.2601    0.2483 N   0  0  0  0  0  0  0  0  0  0  0  0
    2.6541   -0.1240    0.4237 C   0  0  0  0  0  0  0  0  0  0  0  0
    3.5711   -1.2237    0.7713 C   0  0  0  0  0  0  0  0  0  0  0  0
    4.9204   -1.1282    0.9546 C   0  0  0  0  0  0  0  0  0  0  0  0
    5.5835   -2.2576    1.2700 C   0  0  0  0  0  0  0  0  0  0  0  0
    4.8405   -3.4045    1.3787 C   0  0  0  0  0  0  0  0  0  0  0  0
    3.2588   -2.8745    1.0409 S   0  0  0  0  0  0  0  0  0  0  0  0
    3.0013    1.1884    0.2242 C   0  0  0  0  0  0  0  0  0  0  0  0
    1.8554    1.8782   -0.0791 C   0  0  0  0  0  0  0  0  0  0  0  0
    1.7209    3.3222   -0.3757 C   0  0  0  0  0  0  0  0  0  0  0  0
    2.7216    4.2608   -0.4058 C   0  0  0  0  0  0  0  0  0  0  0  0
    2.3727    5.5168   -0.6985 C   0  0  0  0  0  0  0  0  0  0  0  0
    1.0518    5.7671   -0.9438 C   0  0  0  0  0  0  0  0  0  0  0  0
    0.3316    4.2322   -0.7576 S   0  0  0  0  0  0  0  0  0  0  0  0
    0.8192    0.9630   -0.0585 C   0  0  0  0  0  0  0  0  0  0  0  0
   -0.5649    1.1755   -0.3068 N   0  0  0  0  0  0  0  0  0  0  0  0
   -1.4219    0.2139   -0.2513 C   0  0  0  0  0  0  0  0  0  0  0  0
   -2.8741    0.1606   -0.4594 C   0  0  0  0  0  0  0  0  0  0  0  0
   -3.7507    1.2909   -0.8076 C   0  0  0  0  0  0  0  0  0  0  0  0
   -3.4038    2.5987   -1.0060 C   0  0  0  0  0  0  0  0  0  0  0  0
   -4.3955    3.4558   -1.3192 C   0  0  0  0  0  0  0  0  0  0  0  0
   -5.6628    2.9391   -1.4106 C   0  0  0  0  0  0  0  0  0  0  0  0
   -5.4318    1.2899   -1.0599 S   0  0  0  0  0  0  0  0  0  0  0  0
   -3.2127   -1.0951   -0.2697 C   0  0  0  0  0  0  0  0  0  0  0  0
   -2.0815   -1.9036    0.0552 C   0  0  0  0  0  0  0  0  0  0  0  0
   -2.0825   -3.3495    0.3290 C   0  0  0  0  0  0  0  0  0  0  0  0
   -3.1370   -4.2142    0.3390 C   0  0  0  0  0  0  0  0  0  0  0  0
   -2.8861   -5.4974    0.6170 C   0  0  0  0  0  0  0  0  0  0  0  0
   -1.5858   -5.8442    0.8709 C   0  0  0  0  0  0  0  0  0  0  0  0
   -0.7604   -4.3588    0.7108 S   0  0  0  0  0  0  0  0  0  0  0  0
   -1.0392   -1.1244    0.0628 N   0  0  0  0  0  4  0  0  0  0  0  0
    5.4363   -0.1431    0.8430 H   0  0  0  0  0  0  0  0  0  0  0  0
    6.6931   -2.2746    1.4390 H   0  0  0  0  0  0  0  0  0  0  0  0
    5.2409   -4.4042    1.6300 H   0  0  0  0  0  0  0  0  0  0  0  0
    3.9995    1.6435    0.2861 H   0  0  0  0  0  0  0  0  0  0  0  0
    3.7636    3.9336   -0.1874 H   0  0  0  0  0  0  0  0  0  0  0  0
    3.1026    6.3509   -0.7491 H   0  0  0  0  0  0  0  0  0  0  0  0
    0.5968    6.7420   -1.1984 H   0  0  0  0  0  0  0  0  0  0  0  0
   -2.3293    2.8986   -0.9020 H   0  0  0  0  0  0  0  0  0  0  0  0
   -4.1645    4.5416   -1.4925 H   0  0  0  0  0  0  0  0  0  0  0  0
   -6.5850    3.5021   -1.6569 H   0  0  0  0  0  0  0  0  0  0  0  0
   -4.2582   -1.4229   -0.3641 H   0  0  0  0  0  0  0  0  0  0  0  0
   -4.1580   -3.8264    0.1179 H   0  0  0  0  0  0  0  0  0  0  0  0
   -3.6696   -6.2848    0.6517 H   0  0  0  0  0  0  0  0  0  0  0  0
   -1.1989   -6.8498    1.1164 H   0  0  0  0  0  0  0  0  0  0  0  0
  1  2  1  0
  2  3  1  0
  2  4  1  0
  4  5  1  0
  5  6  1  0
  6  7  2  0
  7  8  1  0
  8  9  2  0
  9 10  1  0
  5 11  2  0
 11 12  1  0
 12 13  1  0
 13 14  2  0
 14 15  1  0
 15 16  2  0
 16 17  1  0
 12 18  2  0
 18 19  1  0
 19 20  2  0
 20 21  1  0
 21 22  1  0
 22 23  2  0
 23 24  1  0
 24 25  2  0
 25 26  1  0
 21 27  2  0
 27 28  1  0
 28 29  1  0
 29 30  2  0
 30 31  1  0
 31 32  2  0
 32 33  1  0
 28 34  2  0
 34  2  1  0
 18  4  1  0
 34 20  1  0
 10  6  1  0
 17 13  1  0
 26 22  1  0
 33 29  1  0
  7 35  1  0
  8 36  1  0
  9 37  1  0
 11 38  1  0
 14 39  1  0
 15 40  1  0
 16 41  1  0
 23 42  1  0
 24 43  1  0
 25 44  1  0
 27 45  1  0
 30 46  1  0
 31 47  1  0
 32 48  1  0
M  CHG  2   2  -1  34   1
M  END
