
     RDKit          3D

 82 90  0  0  0  0  0  0  0  0999 V2000
   -7.9141   -4.1267   -0.6879 O   0  0  0  0  0  0  0  0  0  0  0  0
   -6.6656   -3.5146   -0.5976 C   0  0  0  0  0  0  0  0  0  0  0  0
   -5.9247   -3.3408   -1.7504 C   0  0  0  0  0  0  0  0  0  0  0  0
   -4.6914   -2.7330   -1.6430 C   0  0  0  0  0  0  0  0  0  0  0  0
   -4.2413   -2.3226   -0.4068 C   0  0  0  0  0  0  0  0  0  0  0  0
   -2.8993   -1.6758   -0.3913 C   0  0  0  0  0  0  0  0  0  0  0  0
   -1.8684   -2.6234   -0.4204 C   0  0  0  0  0  0  0  0  0  0  0  0
   -0.5880   -2.1770   -0.3956 N   0  0  0  0  0  0  0  0  0  0  0  0
    0.2401   -3.2191   -0.4253 C   0  0  0  0  0  0  0  0  0  0  0  0
    1.6355   -2.9778   -0.3994 C   0  0  0  0  0  0  0  0  0  0  0  0
    2.4684   -4.2023   -0.4518 C   0  0  0  0  0  0  0  0  0  0  0  0
    2.7215   -4.8196   -1.6592 C   0  0  0  0  0  0  0  0  0  0  0  0
    3.4964   -5.9610   -1.7049 C   0  0  0  0  0  0  0  0  0  0  0  0
    4.0274   -6.4994   -0.5474 C   0  0  0  0  0  0  0  0  0  0  0  0
    4.8063   -7.6439   -0.5793 O   0  0  0  0  0  0  0  0  0  0  0  0
    3.7696   -5.8727    0.6716 C   0  0  0  0  0  0  0  0  0  0  0  0
    2.9941   -4.7325    0.7070 C   0  0  0  0  0  0  0  0  0  0  0  0
    2.2138   -1.6903   -0.3570 C   0  0  0  0  0  0  0  0  0  0  0  0
    3.3183   -1.4403   -1.2088 C   0  0  0  0  0  0  0  0  0  0  0  0
    3.6567   -0.1538   -1.0086 C   0  0  0  0  0  0  0  0  0  0  0  0
    2.7677    0.3742   -0.0453 C   0  0  0  0  0  0  0  0  0  0  0  0
    1.9020   -0.5825    0.3372 N   0  0  0  0  0  0  0  0  0  0  0  0
    2.9060    1.7275    0.2965 C   0  0  0  0  0  0  0  0  0  0  0  0
    4.2244    2.3383    0.5124 C   0  0  0  0  0  0  0  0  0  0  0  0
    5.0242    2.7968   -0.5116 C   0  0  0  0  0  0  0  0  0  0  0  0
    6.2634    3.3718   -0.3111 C   0  0  0  0  0  0  0  0  0  0  0  0
    6.7133    3.4878    0.9869 C   0  0  0  0  0  0  0  0  0  0  0  0
    7.9494    4.0600    1.2007 O   0  0  0  0  0  0  0  0  0  0  0  0
    5.9368    3.0385    2.0358 C   0  0  0  0  0  0  0  0  0  0  0  0
    4.7058    2.4703    1.7978 C   0  0  0  0  0  0  0  0  0  0  0  0
    1.8609    2.6495    0.4499 C   0  0  0  0  0  0  0  0  0  0  0  0
    0.5975    2.2441    0.2527 N   0  0  0  0  0  0  0  0  0  0  0  0
   -0.2464    3.2559    0.4509 C   0  0  0  0  0  0  0  0  0  0  0  0
   -1.6286    3.0123    0.2935 C   0  0  0  0  0  0  0  0  0  0  0  0
   -2.4827    4.2034    0.5348 C   0  0  0  0  0  0  0  0  0  0  0  0
   -2.8677    4.4991    1.8277 C   0  0  0  0  0  0  0  0  0  0  0  0
   -3.6526    5.6112    2.0231 C   0  0  0  0  0  0  0  0  0  0  0  0
   -4.0361    6.3960    0.9639 C   0  0  0  0  0  0  0  0  0  0  0  0
   -4.8372    7.5365    1.1418 O   0  0  0  0  0  0  0  0  0  0  0  0
   -3.6429    6.0860   -0.3183 C   0  0  0  0  0  0  0  0  0  0  0  0
   -2.8492    4.9649   -0.5333 C   0  0  0  0  0  0  0  0  0  0  0  0
   -2.2051    1.7845   -0.0803 C   0  0  0  0  0  0  0  0  0  0  0  0
   -3.2449    1.8030   -1.0416 C   0  0  0  0  0  0  0  0  0  0  0  0
   -3.5919    0.4996   -1.2265 C   0  0  0  0  0  0  0  0  0  0  0  0
   -2.7606   -0.2782   -0.3786 C   0  0  0  0  0  0  0  0  0  0  0  0
   -1.9358    0.5279    0.3021 N   0  0  0  0  0  0  0  0  0  0  0  0
    0.5457    4.4128    0.8063 C   0  0  0  0  0  0  0  0  0  0  0  0
    1.8222    4.0524    0.8075 C   0  0  0  0  0  0  0  0  0  0  0  0
   -0.5563   -4.4240   -0.4729 C   0  0  0  0  0  0  0  0  0  0  0  0
   -1.8212   -4.0717   -0.4701 C   0  0  0  0  0  0  0  0  0  0  0  0
   -4.9590   -2.4843    0.7517 C   0  0  0  0  0  0  0  0  0  0  0  0
   -6.1962   -3.0965    0.6295 C   0  0  0  0  0  0  0  0  0  0  0  0
   -8.2788   -4.4376   -1.5558 H   0  0  0  0  0  0  0  0  0  0  0  0
   -6.2788   -3.6625   -2.7144 H   0  0  0  0  0  0  0  0  0  0  0  0
   -4.1243   -2.6056   -2.5550 H   0  0  0  0  0  0  0  0  0  0  0  0
    2.3308   -4.4429   -2.6038 H   0  0  0  0  0  0  0  0  0  0  0  0
    3.7277   -6.4871   -2.6258 H   0  0  0  0  0  0  0  0  0  0  0  0
    5.1867   -8.0272    0.2595 H   0  0  0  0  0  0  0  0  0  0  0  0
    4.1842   -6.2938    1.5741 H   0  0  0  0  0  0  0  0  0  0  0  0
    2.8201   -4.2762    1.6947 H   0  0  0  0  0  0  0  0  0  0  0  0
    3.8386   -2.1028   -1.8992 H   0  0  0  0  0  0  0  0  0  0  0  0
    4.4895    0.3292   -1.5298 H   0  0  0  0  0  0  0  0  0  0  0  0
    1.1002   -0.4815    1.1047 H   0  0  0  0  0  0  0  0  0  0  0  0
    4.6836    2.7151   -1.5404 H   0  0  0  0  0  0  0  0  0  0  0  0
    6.8802    3.7272   -1.1268 H   0  0  0  0  0  0  0  0  0  0  0  0
    8.2804    4.1448    2.1742 H   0  0  0  0  0  0  0  0  0  0  0  0
    6.3435    3.1583    3.0319 H   0  0  0  0  0  0  0  0  0  0  0  0
    4.1313    2.1313    2.6685 H   0  0  0  0  0  0  0  0  0  0  0  0
   -2.5549    3.8714    2.6364 H   0  0  0  0  0  0  0  0  0  0  0  0
   -3.9496    5.8387    3.0210 H   0  0  0  0  0  0  0  0  0  0  0  0
   -5.8481    7.3645    1.0866 H   0  0  0  0  0  0  0  0  0  0  0  0
   -3.9594    6.7248   -1.1540 H   0  0  0  0  0  0  0  0  0  0  0  0
   -2.5690    4.7740   -1.5678 H   0  0  0  0  0  0  0  0  0  0  0  0
   -3.6977    2.6789   -1.5412 H   0  0  0  0  0  0  0  0  0  0  0  0
   -4.3841    0.1368   -1.9109 H   0  0  0  0  0  0  0  0  0  0  0  0
   -1.1812    0.2125    1.0663 H   0  0  0  0  0  0  0  0  0  0  0  0
    0.1405    5.3989    1.0300 H   0  0  0  0  0  0  0  0  0  0  0  0
    2.6547    4.7177    1.0402 H   0  0  0  0  0  0  0  0  0  0  0  0
   -0.1676   -5.4713   -0.5056 H   0  0  0  0  0  0  0  0  0  0  0  0
   -2.6697   -4.7663   -0.5003 H   0  0  0  0  0  0  0  0  0  0  0  0
   -4.5678   -2.1491    1.6916 H   0  0  0  0  0  0  0  0  0  0  0  0
   -6.8214   -3.2612    1.4941 H   0  0  0  0  0  0  0  0  0  0  0  0
  1  2  1  0
  2  3  2  0
  3  4  1  0
  4  5  2  0
  5  6  1  0
  6  7  1  0
  7  8  2  0
  8  9  1  0
  9 10  2  0
 10 11  1  0
 11 12  2  0
 12 13  1  0
 13 14  2  0
 14 15  1  0
 14 16  1  0
 16 17  2  0
 10 18  1  0
 18 19  2  0
 19 20  1  0
 20 21  2  0
 21 22  1  0
 21 23  1  0
 23 24  1  0
 24 25  2  0
 25 26  1  0
 26 27  2  0
 27 28  1  0
 27 29  1  0
 29 30  2  0
 23 31  2  0
 31 32  1  0
 32 33  2  0
 33 34  1  0
 34 35  1  0
 35 36  2  0
 36 37  1  0
 37 38  2  0
 38 39  1  0
 38 40  1  0
 40 41  2  0
 34 42  2  0
 42 43  1  0
 43 44  2  0
 44 45  1  0
 45 46  1  0
 33 47  1  0
 47 48  2  0
  9 49  1  0
 49 50  2  0
  5 51  1  0
 51 52  2  0
 52  2  1  0
 45  6  2  0
 50  7  1  0
 17 11  1  0
 22 18  1  0
 30 24  1  0
 48 31  1  0
 41 35  1  0
 46 42  1  0
  1 53  1  0
  3 54  1  0
  4 55  1  0
 12 56  1  0
 13 57  1  0
 15 58  1  0
 16 59  1  0
 17 60  1  0
 19 61  1  0
 20 62  1  0
 22 63  1  0
 25 64  1  0
 26 65  1  0
 28 66  1  0
 29 67  1  0
 30 68  1  0
 36 69  1  0
 37 70  1  0
 39 71  1  0
 40 72  1  0
 41 73  1  0
 43 74  1  0
 44 75  1  0
 46 76  1  0
 47 77  1  0
 48 78  1  0
 49 79  1  0
 50 80  1  0
 51 81  1  0
 52 82  1  0
M  END
