
     RDKit          3D

 36 39  0  0  0  0  0  0  0  0999 V2000
    3.8223   -3.1647    1.0030 O   0  0  0  0  0  0  0  0  0  0  0  0
    3.1723   -2.1415    0.6660 C   0  0  0  0  0  0  0  0  0  0  0  0
    3.9061   -1.0237    0.3339 C   0  0  0  0  0  0  0  0  0  0  0  0
    3.2686    0.1393   -0.0466 C   0  0  0  0  0  0  0  0  0  0  0  0
    3.9529    1.3808   -0.4188 C   0  0  0  0  0  0  0  0  0  0  0  0
    3.6991    1.8160   -1.6842 F   0  0  0  0  0  0  0  0  0  0  0  0
    5.3273    1.1275   -0.3437 F   0  0  0  0  0  0  0  0  0  0  0  0
    3.7282    2.3994    0.5151 F   0  0  0  0  0  0  0  0  0  0  0  0
    1.8754    0.0872   -0.0652 C   0  0  0  0  0  0  0  0  0  0  0  0
    1.1460    1.1886   -0.4290 C   0  0  0  0  0  0  0  0  0  0  0  0
   -0.2196    1.1764   -0.4594 C   0  0  0  0  0  0  0  0  0  0  0  0
   -0.8778    0.0221   -0.1136 C   0  0  0  0  0  0  0  0  0  0  0  0
   -0.1708   -1.1239    0.2632 C   0  0  0  0  0  0  0  0  0  0  0  0
    1.1980   -1.0642    0.2787 C   0  0  0  0  0  0  0  0  0  0  0  0
    1.8488   -2.1467    0.6344 O   0  0  0  0  0  0  0  0  0  0  0  0
   -0.8862   -2.3605    0.6268 C   0  0  0  0  0  0  0  0  0  0  0  0
   -2.3619   -2.2547    0.6516 C   0  0  0  0  0  0  0  0  0  0  0  0
   -2.9340   -1.2839   -0.3909 C   0  0  0  0  0  0  0  0  0  0  0  0
   -2.2898    0.0053   -0.1396 N   0  0  0  0  0  0  0  0  0  0  0  0
   -3.0377    1.2051    0.0824 C   0  0  0  0  0  0  0  0  0  0  0  0
   -2.2811    2.4738   -0.0612 C   0  0  0  0  0  0  0  0  0  0  0  0
   -1.0275    2.3613   -0.8573 C   0  0  0  0  0  0  0  0  0  0  0  0
    4.9798   -1.0393    0.3657 H   0  0  0  0  0  0  0  0  0  0  0  0
    1.6449    2.1016   -0.7028 H   0  0  0  0  0  0  0  0  0  0  0  0
   -0.5400   -2.6051    1.6779 H   0  0  0  0  0  0  0  0  0  0  0  0
   -0.5344   -3.1963   -0.0356 H   0  0  0  0  0  0  0  0  0  0  0  0
   -2.7370   -1.8852    1.6314 H   0  0  0  0  0  0  0  0  0  0  0  0
   -2.7963   -3.2581    0.4680 H   0  0  0  0  0  0  0  0  0  0  0  0
   -2.7015   -1.6528   -1.4059 H   0  0  0  0  0  0  0  0  0  0  0  0
   -4.0232   -1.2462   -0.1944 H   0  0  0  0  0  0  0  0  0  0  0  0
   -3.5700    1.1769    1.0809 H   0  0  0  0  0  0  0  0  0  0  0  0
   -3.8857    1.1831   -0.6527 H   0  0  0  0  0  0  0  0  0  0  0  0
   -1.9959    2.8546    0.9563 H   0  0  0  0  0  0  0  0  0  0  0  0
   -2.9397    3.2541   -0.4879 H   0  0  0  0  0  0  0  0  0  0  0  0
   -1.3202    2.2117   -1.9279 H   0  0  0  0  0  0  0  0  0  0  0  0
   -0.4394    3.2822   -0.8184 H   0  0  0  0  0  0  0  0  0  0  0  0
  1  2  2  0
  2  3  1  0
  3  4  2  0
  4  5  1  0
  5  6  1  0
  5  7  1  0
  5  8  1  0
  4  9  1  0
  9 10  2  0
 10 11  1  0
 11 12  2  0
 12 13  1  0
 13 14  2  0
 14 15  1  0
 13 16  1  0
 16 17  1  0
 17 18  1  0
 18 19  1  0
 19 20  1  0
 20 21  1  0
 21 22  1  0
 15  2  1  0
 14  9  1  0
 22 11  1  0
 19 12  1  0
  3 23  1  0
 10 24  1  0
 16 25  1  0
 16 26  1  0
 17 27  1  0
 17 28  1  0
 18 29  1  0
 18 30  1  0
 20 31  1  0
 20 32  1  0
 21 33  1  0
 21 34  1  0
 22 35  1  0
 22 36  1  0
M  END
