
     RDKit          3D

 92 99  0  0  0  0  0  0  0  0999 V2000
   -8.1500   -0.9884   -0.5044 C   0  0  0  0  0  0  0  0  0  0  0  0
   -7.0205   -0.2566   -1.1325 C   0  0  0  0  0  0  0  0  0  0  0  0
   -7.2849    0.5939   -2.1547 C   0  0  0  0  0  0  0  0  0  0  0  0
   -6.2592    1.2870   -2.7558 C   0  0  0  0  0  0  0  0  0  0  0  0
   -4.9731    1.1005   -2.3039 C   0  0  0  0  0  0  0  0  0  0  0  0
   -4.6528    0.2303   -1.2505 C   0  0  0  0  0  0  0  0  0  0  0  0
   -3.2841    0.2156   -0.7888 C   0  0  0  0  0  0  0  0  0  0  0  0
   -2.4765    1.2869   -0.9772 C   0  0  0  0  0  0  0  0  0  0  0  0
   -1.1925    0.9654   -0.4091 C   0  0  0  0  0  0  0  0  0  0  0  0
   -0.0597    1.6845   -0.3921 C   0  0  0  0  0  0  0  0  0  0  0  0
   -0.0539    2.9973   -1.0147 C   0  0  0  0  0  0  0  0  0  0  0  0
   -0.3241    3.2173   -2.3233 C   0  0  0  0  0  0  0  0  0  0  0  0
   -0.5477    2.0884   -3.2498 C   0  0  0  0  0  0  0  0  0  0  0  0
   -0.3389    4.5252   -2.7729 C   0  0  0  0  0  0  0  0  0  0  0  0
   -0.0902    5.6011   -1.9496 C   0  0  0  0  0  0  0  0  0  0  0  0
   -0.1191    6.9876   -2.4870 C   0  0  0  0  0  0  0  0  0  0  0  0
    0.1854    5.3500   -0.6145 C   0  0  0  0  0  0  0  0  0  0  0  0
    0.2065    4.0597   -0.1365 C   0  0  0  0  0  0  0  0  0  0  0  0
    0.5008    3.8472    1.2974 C   0  0  0  0  0  0  0  0  0  0  0  0
    1.1456    1.0812    0.1412 C   0  0  0  0  0  0  0  0  0  0  0  0
    2.4203    1.6462    0.1458 C   0  0  0  0  0  0  0  0  0  0  0  0
    3.2624    0.6614    0.6627 C   0  0  0  0  0  0  0  0  0  0  0  0
    4.7029    0.8173    0.8430 C   0  0  0  0  0  0  0  0  0  0  0  0
    5.2017    1.5879    1.8748 C   0  0  0  0  0  0  0  0  0  0  0  0
    6.5673    1.7532    2.0604 C   0  0  0  0  0  0  0  0  0  0  0  0
    7.4631    1.1422    1.2049 C   0  0  0  0  0  0  0  0  0  0  0  0
    6.9812    0.3701    0.1703 C   0  0  0  0  0  0  0  0  0  0  0  0
    7.9774   -0.2724   -0.7364 C   0  0  0  0  0  0  0  0  0  0  0  0
    5.6137    0.2170    0.0018 C   0  0  0  0  0  0  0  0  0  0  0  0
    2.4705   -0.4265    0.9400 C   0  0  0  0  0  0  0  0  0  0  0  0
    2.9587   -1.6851    1.5052 C   0  0  0  0  0  0  0  0  0  0  0  0
    3.4327   -1.7691    2.7921 C   0  0  0  0  0  0  0  0  0  0  0  0
    3.8950   -2.9493    3.3200 C   0  0  0  0  0  0  0  0  0  0  0  0
    3.8964   -4.0913    2.5678 C   0  0  0  0  0  0  0  0  0  0  0  0
    3.4291   -4.0390    1.2787 C   0  0  0  0  0  0  0  0  0  0  0  0
    3.4168   -5.2581    0.4382 C   0  0  0  0  0  0  0  0  0  0  0  0
    2.9614   -2.8509    0.7403 C   0  0  0  0  0  0  0  0  0  0  0  0
    1.1710   -0.1445    0.6133 N   0  0  0  0  0  0  0  0  0  0  0  0
   -0.0936   -0.9677    0.8017 B   0  0  0  0  0  4  0  0  0  0  0  0
    0.0836   -2.3475    0.4676 F   0  0  0  0  0  0  0  0  0  0  0  0
   -0.2788   -0.8077    2.3060 F   0  0  0  0  0  0  0  0  0  0  0  0
   -1.3059   -0.3458    0.1199 N   0  0  0  0  0  4  0  0  0  0  0  0
   -2.5276   -0.7969   -0.1143 C   0  0  0  0  0  0  0  0  0  0  0  0
   -2.9631   -2.1433    0.2308 C   0  0  0  0  0  0  0  0  0  0  0  0
   -3.8338   -2.8476   -0.6023 C   0  0  0  0  0  0  0  0  0  0  0  0
   -4.3581   -4.0827   -0.3262 C   0  0  0  0  0  0  0  0  0  0  0  0
   -4.0182   -4.6903    0.8422 C   0  0  0  0  0  0  0  0  0  0  0  0
   -3.1641   -4.0509    1.7062 C   0  0  0  0  0  0  0  0  0  0  0  0
   -2.7858   -4.7074    2.9849 C   0  0  0  0  0  0  0  0  0  0  0  0
   -2.6417   -2.7788    1.3939 C   0  0  0  0  0  0  0  0  0  0  0  0
   -5.7096   -0.4155   -0.7059 C   0  0  0  0  0  0  0  0  0  0  0  0
   -7.8296   -1.7422    0.2269 H   0  0  0  0  0  0  0  0  0  0  0  0
   -8.7359   -1.4332   -1.3533 H   0  0  0  0  0  0  0  0  0  0  0  0
   -8.8465   -0.2959    0.0094 H   0  0  0  0  0  0  0  0  0  0  0  0
   -8.3232    0.7174   -2.4886 H   0  0  0  0  0  0  0  0  0  0  0  0
   -6.4665    1.9636   -3.5689 H   0  0  0  0  0  0  0  0  0  0  0  0
   -4.1903    1.6605   -2.7980 H   0  0  0  0  0  0  0  0  0  0  0  0
   -2.7426    2.2023   -1.4489 H   0  0  0  0  0  0  0  0  0  0  0  0
    0.0988    2.2053   -4.1713 H   0  0  0  0  0  0  0  0  0  0  0  0
   -1.6109    2.0295   -3.5973 H   0  0  0  0  0  0  0  0  0  0  0  0
   -0.2787    1.1220   -2.7911 H   0  0  0  0  0  0  0  0  0  0  0  0
   -0.5568    4.7102   -3.8197 H   0  0  0  0  0  0  0  0  0  0  0  0
    0.1315    7.0426   -3.5537 H   0  0  0  0  0  0  0  0  0  0  0  0
    0.6693    7.5486   -1.9076 H   0  0  0  0  0  0  0  0  0  0  0  0
   -1.0967    7.4641   -2.2852 H   0  0  0  0  0  0  0  0  0  0  0  0
    0.3753    6.2212   -0.0021 H   0  0  0  0  0  0  0  0  0  0  0  0
    1.5698    4.0239    1.5573 H   0  0  0  0  0  0  0  0  0  0  0  0
   -0.1620    4.5307    1.8840 H   0  0  0  0  0  0  0  0  0  0  0  0
    0.2532    2.8298    1.6547 H   0  0  0  0  0  0  0  0  0  0  0  0
    2.6884    2.6247   -0.1781 H   0  0  0  0  0  0  0  0  0  0  0  0
    4.5437    2.0756    2.5574 H   0  0  0  0  0  0  0  0  0  0  0  0
    6.9509    2.3546    2.8671 H   0  0  0  0  0  0  0  0  0  0  0  0
    8.5396    1.2830    1.3653 H   0  0  0  0  0  0  0  0  0  0  0  0
    8.7950    0.4793   -0.9019 H   0  0  0  0  0  0  0  0  0  0  0  0
    7.4926   -0.4556   -1.7190 H   0  0  0  0  0  0  0  0  0  0  0  0
    8.4146   -1.1878   -0.2990 H   0  0  0  0  0  0  0  0  0  0  0  0
    5.2884   -0.3954   -0.8218 H   0  0  0  0  0  0  0  0  0  0  0  0
    3.4414   -0.8868    3.4023 H   0  0  0  0  0  0  0  0  0  0  0  0
    4.2744   -3.0049    4.3557 H   0  0  0  0  0  0  0  0  0  0  0  0
    4.2718   -5.0121    3.0221 H   0  0  0  0  0  0  0  0  0  0  0  0
    2.3820   -5.6284    0.3277 H   0  0  0  0  0  0  0  0  0  0  0  0
    4.0519   -6.0517    0.9149 H   0  0  0  0  0  0  0  0  0  0  0  0
    3.8514   -4.9876   -0.5460 H   0  0  0  0  0  0  0  0  0  0  0  0
    2.6061   -2.8423   -0.2732 H   0  0  0  0  0  0  0  0  0  0  0  0
   -4.1033   -2.4280   -1.5553 H   0  0  0  0  0  0  0  0  0  0  0  0
   -5.0369   -4.5896   -1.0136 H   0  0  0  0  0  0  0  0  0  0  0  0
   -4.4343   -5.6719    1.0609 H   0  0  0  0  0  0  0  0  0  0  0  0
   -2.6511   -3.9251    3.7559 H   0  0  0  0  0  0  0  0  0  0  0  0
   -3.5916   -5.4081    3.2712 H   0  0  0  0  0  0  0  0  0  0  0  0
   -1.8777   -5.3107    2.8206 H   0  0  0  0  0  0  0  0  0  0  0  0
   -2.0047   -2.3693    2.1556 H   0  0  0  0  0  0  0  0  0  0  0  0
   -5.5864   -1.0639    0.1359 H   0  0  0  0  0  0  0  0  0  0  0  0
  1  2  1  0
  2  3  2  0
  3  4  1  0
  4  5  2  0
  5  6  1  0
  6  7  1  0
  7  8  2  0
  8  9  1  0
  9 10  2  0
 10 11  1  0
 11 12  2  0
 12 13  1  0
 12 14  1  0
 14 15  2  0
 15 16  1  0
 15 17  1  0
 17 18  2  0
 18 19  1  0
 10 20  1  0
 20 21  2  0
 21 22  1  0
 22 23  1  0
 23 24  2  0
 24 25  1  0
 25 26  2  0
 26 27  1  0
 27 28  1  0
 27 29  2  0
 22 30  2  0
 30 31  1  0
 31 32  2  0
 32 33  1  0
 33 34  2  0
 34 35  1  0
 35 36  1  0
 35 37  2  0
 30 38  1  0
 38 39  1  0
 39 40  1  0
 39 41  1  0
 39 42  1  0
 42 43  2  0
 43 44  1  0
 44 45  2  0
 45 46  1  0
 46 47  2  0
 47 48  1  0
 48 49  1  0
 48 50  2  0
  6 51  2  0
 51  2  1  0
 43  7  1  0
 50 44  1  0
 42  9  1  0
 18 11  1  0
 38 20  1  0
 29 23  1  0
 37 31  1  0
  1 52  1  0
  1 53  1  0
  1 54  1  0
  3 55  1  0
  4 56  1  0
  5 57  1  0
  8 58  1  0
 13 59  1  0
 13 60  1  0
 13 61  1  0
 14 62  1  0
 16 63  1  0
 16 64  1  0
 16 65  1  0
 17 66  1  0
 19 67  1  0
 19 68  1  0
 19 69  1  0
 21 70  1  0
 24 71  1  0
 25 72  1  0
 26 73  1  0
 28 74  1  0
 28 75  1  0
 28 76  1  0
 29 77  1  0
 32 78  1  0
 33 79  1  0
 34 80  1  0
 36 81  1  0
 36 82  1  0
 36 83  1  0
 37 84  1  0
 45 85  1  0
 46 86  1  0
 47 87  1  0
 49 88  1  0
 49 89  1  0
 49 90  1  0
 50 91  1  0
 51 92  1  0
M  CHG  2  39  -1  42   1
M  END
