
     RDKit          3D

 62 67  0  0  0  0  0  0  0  0999 V2000
    0.7254    8.3300   -0.4740 C   0  0  0  0  0  0  0  0  0  0  0  0
    0.5839    6.8562   -0.3658 C   0  0  0  0  0  0  0  0  0  0  0  0
   -0.3569    6.2394   -1.1518 C   0  0  0  0  0  0  0  0  0  0  0  0
   -0.5063    4.8507   -1.0651 C   0  0  0  0  0  0  0  0  0  0  0  0
    0.2690    4.1041   -0.2110 C   0  0  0  0  0  0  0  0  0  0  0  0
    0.0685    2.6509   -0.1217 C   0  0  0  0  0  0  0  0  0  0  0  0
   -1.1528    2.1454    0.0630 C   0  0  0  0  0  0  0  0  0  0  0  0
   -2.4035    2.9141    0.2012 C   0  0  0  0  0  0  0  0  0  0  0  0
   -3.3243    2.0122    0.3606 C   0  0  0  0  0  0  0  0  0  0  0  0
   -2.7145    0.6472    0.3329 C   0  0  0  0  0  0  0  0  0  0  0  0
   -3.5193   -0.5386    0.4886 C   0  0  0  0  0  0  0  0  0  0  0  0
   -3.1402   -1.7750    0.4993 C   0  0  0  0  0  0  0  0  0  0  0  0
   -4.1019   -2.8869    0.6700 C   0  0  0  0  0  0  0  0  0  0  0  0
   -3.6551   -4.2109    0.6763 C   0  0  0  0  0  0  0  0  0  0  0  0
   -4.5090   -5.2580    0.8306 C   0  0  0  0  0  0  0  0  0  0  0  0
   -5.8525   -5.0726    0.9880 C   0  0  0  0  0  0  0  0  0  0  0  0
   -6.3291   -3.8059    0.9880 C   0  0  0  0  0  0  0  0  0  0  0  0
   -5.4509   -2.7261    0.8293 C   0  0  0  0  0  0  0  0  0  0  0  0
   -1.4244    0.7538    0.1541 N   0  0  0  0  0  4  0  0  0  0  0  0
   -0.2939   -0.2371    0.0250 B   0  0  0  0  0  4  0  0  0  0  0  0
   -0.4779   -1.2022   -1.0632 F   0  0  0  0  0  0  0  0  0  0  0  0
   -0.1527   -0.9881    1.2729 F   0  0  0  0  0  0  0  0  0  0  0  0
    1.0728    0.4367   -0.1669 N   0  0  0  0  0  0  0  0  0  0  0  0
    2.3094   -0.1301   -0.3045 C   0  0  0  0  0  0  0  0  0  0  0  0
    2.5822   -1.5743   -0.2795 C   0  0  0  0  0  0  0  0  0  0  0  0
    3.7893   -2.0656   -0.4182 C   0  0  0  0  0  0  0  0  0  0  0  0
    4.1361   -3.4765   -0.4045 C   0  0  0  0  0  0  0  0  0  0  0  0
    3.2013   -4.4750   -0.2375 C   0  0  0  0  0  0  0  0  0  0  0  0
    3.6498   -5.7819   -0.2422 C   0  0  0  0  0  0  0  0  0  0  0  0
    4.9749   -6.1239   -0.4047 C   0  0  0  0  0  0  0  0  0  0  0  0
    5.9217   -5.1248   -0.5733 C   0  0  0  0  0  0  0  0  0  0  0  0
    5.4605   -3.8250   -0.5666 C   0  0  0  0  0  0  0  0  0  0  0  0
    3.2179    0.8850   -0.4649 C   0  0  0  0  0  0  0  0  0  0  0  0
    2.5390    2.0612   -0.4251 C   0  0  0  0  0  0  0  0  0  0  0  0
    1.2074    1.7495   -0.2382 C   0  0  0  0  0  0  0  0  0  0  0  0
    1.2073    4.7350    0.5703 C   0  0  0  0  0  0  0  0  0  0  0  0
    1.3637    6.0976    0.4938 C   0  0  0  0  0  0  0  0  0  0  0  0
   -0.2827    8.7839   -0.6334 H   0  0  0  0  0  0  0  0  0  0  0  0
    1.1758    8.7400    0.4350 H   0  0  0  0  0  0  0  0  0  0  0  0
    1.3074    8.5688   -1.3871 H   0  0  0  0  0  0  0  0  0  0  0  0
   -0.9781    6.8197   -1.8322 H   0  0  0  0  0  0  0  0  0  0  0  0
   -1.2428    4.4352   -1.7126 H   0  0  0  0  0  0  0  0  0  0  0  0
   -2.5101    4.0067    0.1817 H   0  0  0  0  0  0  0  0  0  0  0  0
   -4.3818    2.2238    0.4944 H   0  0  0  0  0  0  0  0  0  0  0  0
   -4.6195   -0.3713    0.6169 H   0  0  0  0  0  0  0  0  0  0  0  0
   -2.1282   -2.0793    0.3952 H   0  0  0  0  0  0  0  0  0  0  0  0
   -2.5747   -4.3420    0.5488 H   0  0  0  0  0  0  0  0  0  0  0  0
   -4.0598   -6.2576    0.8216 H   0  0  0  0  0  0  0  0  0  0  0  0
   -6.4593   -5.9613    1.1046 H   0  0  0  0  0  0  0  0  0  0  0  0
   -7.3845   -3.6335    1.1102 H   0  0  0  0  0  0  0  0  0  0  0  0
   -5.8937   -1.7438    0.8383 H   0  0  0  0  0  0  0  0  0  0  0  0
    1.7605   -2.2591   -0.1417 H   0  0  0  0  0  0  0  0  0  0  0  0
    4.5840   -1.3470   -0.5532 H   0  0  0  0  0  0  0  0  0  0  0  0
    2.1764   -4.2311   -0.1110 H   0  0  0  0  0  0  0  0  0  0  0  0
    2.9431   -6.5979   -0.1134 H   0  0  0  0  0  0  0  0  0  0  0  0
    5.3267   -7.1318   -0.4091 H   0  0  0  0  0  0  0  0  0  0  0  0
    6.9810   -5.3366   -0.7058 H   0  0  0  0  0  0  0  0  0  0  0  0
    6.2194   -3.0549   -0.7006 H   0  0  0  0  0  0  0  0  0  0  0  0
    4.2761    0.7411   -0.5969 H   0  0  0  0  0  0  0  0  0  0  0  0
    2.9559    3.0568   -0.5243 H   0  0  0  0  0  0  0  0  0  0  0  0
    1.8060    4.1399    1.2406 H   0  0  0  0  0  0  0  0  0  0  0  0
    2.0879    6.6408    1.0871 H   0  0  0  0  0  0  0  0  0  0  0  0
  1  2  1  0
  2  3  2  0
  3  4  1  0
  4  5  2  0
  5  6  1  0
  6  7  2  0
  7  8  1  0
  8  9  2  0
  9 10  1  0
 10 11  1  0
 11 12  2  0
 12 13  1  0
 13 14  2  0
 14 15  1  0
 15 16  2  0
 16 17  1  0
 17 18  2  0
 10 19  2  0
 19 20  1  0
 20 21  1  0
 20 22  1  0
 20 23  1  0
 23 24  1  0
 24 25  1  0
 25 26  2  0
 26 27  1  0
 27 28  2  0
 28 29  1  0
 29 30  2  0
 30 31  1  0
 31 32  2  0
 24 33  2  0
 33 34  1  0
 34 35  2  0
  5 36  1  0
 36 37  2  0
 37  2  1  0
 35  6  1  0
 19  7  1  0
 35 23  1  0
 18 13  1  0
 32 27  1  0
  1 38  1  0
  1 39  1  0
  1 40  1  0
  3 41  1  0
  4 42  1  0
  8 43  1  0
  9 44  1  0
 11 45  1  0
 12 46  1  0
 14 47  1  0
 15 48  1  0
 16 49  1  0
 17 50  1  0
 18 51  1  0
 25 52  1  0
 26 53  1  0
 28 54  1  0
 29 55  1  0
 30 56  1  0
 31 57  1  0
 32 58  1  0
 33 59  1  0
 34 60  1  0
 36 61  1  0
 37 62  1  0
M  CHG  2  19   1  20  -1
M  END
