
     RDKit          3D

 47 52  0  0  0  0  0  0  0  0999 V2000
   -3.0821   -3.2137    0.6381 C   0  0  0  0  0  0  0  0  0  0  0  0
   -1.7408   -3.2875    0.8332 C   0  0  0  0  0  0  0  0  0  0  0  0
   -0.9621   -2.2036    0.5819 C   0  0  0  0  0  0  0  0  0  0  0  0
   -1.5094   -1.0194    0.1287 C   0  0  0  0  0  0  0  0  0  0  0  0
   -2.8616   -0.9071   -0.0803 C   0  0  0  0  0  0  0  0  0  0  0  0
   -3.6303   -2.0441    0.1896 C   0  0  0  0  0  0  0  0  0  0  0  0
   -3.4947    0.3169   -0.5572 C   0  0  0  0  0  0  0  0  0  0  0  0
   -2.5039    1.3945   -0.7795 C   0  0  0  0  0  0  0  0  0  0  0  0
   -2.9729    2.6421   -1.2431 C   0  0  0  0  0  0  0  0  0  0  0  0
   -2.1326    3.6879   -1.4743 C   0  0  0  0  0  0  0  0  0  0  0  0
   -0.7749    3.5758   -1.2647 C   0  0  0  0  0  0  0  0  0  0  0  0
   -0.3026    2.3654   -0.8126 C   0  0  0  0  0  0  0  0  0  0  0  0
   -1.1489    1.2751   -0.5678 C   0  0  0  0  0  0  0  0  0  0  0  0
   -0.6145    0.0516   -0.1036 N   0  0  0  0  0  0  0  0  0  0  0  0
    0.7618   -0.0792    0.1144 C   0  0  0  0  0  0  0  0  0  0  0  0
    1.2888    0.2256    1.3594 C   0  0  0  0  0  0  0  0  0  0  0  0
    0.4656    0.6577    2.3876 C   0  0  0  0  0  0  0  0  0  0  0  0
    0.9940    0.9615    3.6301 C   0  0  0  0  0  0  0  0  0  0  0  0
    2.3529    0.8434    3.8812 C   0  0  0  0  0  0  0  0  0  0  0  0
    3.1464    0.4127    2.8437 C   0  0  0  0  0  0  0  0  0  0  0  0
    2.6498    0.1018    1.5929 C   0  0  0  0  0  0  0  0  0  0  0  0
    3.4605   -0.3295    0.5616 C   0  0  0  0  0  0  0  0  0  0  0  0
    2.9762   -0.6414   -0.6866 C   0  0  0  0  0  0  0  0  0  0  0  0
    3.8155   -1.0768   -1.7180 C   0  0  0  0  0  0  0  0  0  0  0  0
    3.3079   -1.3842   -2.9627 C   0  0  0  0  0  0  0  0  0  0  0  0
    1.9466   -1.2434   -3.1406 C   0  0  0  0  0  0  0  0  0  0  0  0
    1.0945   -0.8163   -2.1425 C   0  0  0  0  0  0  0  0  0  0  0  0
    1.6204   -0.5128   -0.9022 C   0  0  0  0  0  0  0  0  0  0  0  0
   -3.6768   -4.1070    0.8513 H   0  0  0  0  0  0  0  0  0  0  0  0
   -1.2500   -4.1894    1.1878 H   0  0  0  0  0  0  0  0  0  0  0  0
    0.1192   -2.2682    0.7408 H   0  0  0  0  0  0  0  0  0  0  0  0
   -4.7122   -2.0106    0.0406 H   0  0  0  0  0  0  0  0  0  0  0  0
   -4.0225    0.1913   -1.5307 H   0  0  0  0  0  0  0  0  0  0  0  0
   -4.1997    0.7294    0.2206 H   0  0  0  0  0  0  0  0  0  0  0  0
   -4.0450    2.7217   -1.4058 H   0  0  0  0  0  0  0  0  0  0  0  0
   -2.5166    4.6545   -1.8361 H   0  0  0  0  0  0  0  0  0  0  0  0
   -0.0952    4.4011   -1.4450 H   0  0  0  0  0  0  0  0  0  0  0  0
    0.7537    2.1845   -0.6192 H   0  0  0  0  0  0  0  0  0  0  0  0
   -0.5988    0.7490    2.1868 H   0  0  0  0  0  0  0  0  0  0  0  0
    0.3079    1.3016    4.4214 H   0  0  0  0  0  0  0  0  0  0  0  0
    2.7225    1.0904    4.8635 H   0  0  0  0  0  0  0  0  0  0  0  0
    4.2081    0.3159    3.0252 H   0  0  0  0  0  0  0  0  0  0  0  0
    4.5148   -0.4223    0.7526 H   0  0  0  0  0  0  0  0  0  0  0  0
    4.8823   -1.1754   -1.5402 H   0  0  0  0  0  0  0  0  0  0  0  0
    3.9246   -1.7257   -3.7912 H   0  0  0  0  0  0  0  0  0  0  0  0
    1.5135   -1.4786   -4.1139 H   0  0  0  0  0  0  0  0  0  0  0  0
    0.0204   -0.7151   -2.3153 H   0  0  0  0  0  0  0  0  0  0  0  0
  1  2  2  0
  2  3  1  0
  3  4  2  0
  4  5  1  0
  5  6  2  0
  5  7  1  0
  7  8  1  0
  8  9  2  0
  9 10  1  0
 10 11  2  0
 11 12  1  0
 12 13  2  0
 13 14  1  0
 14 15  1  0
 15 16  1  0
 16 17  2  0
 17 18  1  0
 18 19  2  0
 19 20  1  0
 20 21  2  0
 21 22  1  0
 22 23  2  0
 23 24  1  0
 24 25  2  0
 25 26  1  0
 26 27  2  0
 27 28  1  0
  6  1  1  0
 13  8  1  0
 28 15  2  0
 14  4  1  0
 21 16  1  0
 28 23  1  0
  1 29  1  0
  2 30  1  0
  3 31  1  0
  6 32  1  0
  7 33  1  0
  7 34  1  0
  9 35  1  0
 10 36  1  0
 11 37  1  0
 12 38  1  0
 17 39  1  0
 18 40  1  0
 19 41  1  0
 20 42  1  0
 22 43  1  0
 24 44  1  0
 25 45  1  0
 26 46  1  0
 27 47  1  0
M  END
