
     RDKit          3D

 47 51  0  0  0  0  0  0  0  0999 V2000
    6.8044    0.2745   -0.8146 C   0  0  0  0  0  0  0  0  0  0  0  0
    5.4251    0.5473   -0.8064 O   0  0  0  0  0  0  0  0  0  0  0  0
    4.5056   -0.3150   -0.2337 C   0  0  0  0  0  0  0  0  0  0  0  0
    4.9649   -1.4762    0.3451 C   0  0  0  0  0  0  0  0  0  0  0  0
    4.0873   -2.3852    0.9384 C   0  0  0  0  0  0  0  0  0  0  0  0
    2.7528   -2.0986    0.9339 C   0  0  0  0  0  0  0  0  0  0  0  0
    2.2702   -0.9563    0.3680 C   0  0  0  0  0  0  0  0  0  0  0  0
    0.8320   -0.6641    0.3722 C   0  0  0  0  0  0  0  0  0  0  0  0
    0.2595    0.4304   -0.1572 N   0  0  0  0  0  0  0  0  0  0  0  0
   -1.0900    0.3639    0.0320 C   0  0  0  0  0  0  0  0  0  0  0  0
   -1.3654   -0.7905    0.6895 C   0  0  0  0  0  0  0  0  0  0  0  0
   -0.1647   -1.4007    0.8850 N   0  0  0  0  0  0  0  0  0  0  0  0
   -2.7582   -1.1792    1.0490 C   0  0  0  0  0  0  0  0  0  0  0  0
   -3.1987   -2.3426    1.4155 C   0  0  0  0  0  0  0  0  0  0  0  0
   -4.6082   -2.4646    1.7103 C   0  0  0  0  0  0  0  0  0  0  0  0
   -5.2156   -3.3127    2.3692 O   0  0  0  0  0  0  0  0  0  0  0  0
   -5.3042   -1.0421    0.8648 S   0  0  0  0  0  0  0  0  0  0  0  0
   -3.7742   -0.0750    0.9783 C   0  0  1  0  0  0  0  0  0  0  0  0
   -3.8395    0.7324    2.2412 C   0  0  0  0  0  0  0  0  0  0  0  0
   -3.5855    0.7429   -0.2474 C   0  0  1  0  0  0  0  0  0  0  0  0
   -3.9034    0.0554   -1.5244 C   0  0  0  0  0  0  0  0  0  0  0  0
   -4.5464    2.2800   -0.1752 S   0  0  0  0  0  0  0  0  0  0  0  0
   -3.2997    3.2415   -1.0357 C   0  0  0  0  0  0  0  0  0  0  0  0
   -3.4968    4.2607   -1.7079 O   0  0  0  0  0  0  0  0  0  0  0  0
   -2.0831    2.5199   -0.7300 C   0  0  0  0  0  0  0  0  0  0  0  0
   -2.1996    1.2886   -0.3360 C   0  0  0  0  0  0  0  0  0  0  0  0
    3.1522   -0.0638   -0.2168 C   0  0  0  0  0  0  0  0  0  0  0  0
    2.6583    1.1065   -0.7966 O   0  0  0  0  0  0  0  0  0  0  0  0
    2.5156    2.3018   -0.0486 C   0  0  0  0  0  0  0  0  0  0  0  0
    6.9239   -0.7794   -1.1732 H   0  0  0  0  0  0  0  0  0  0  0  0
    7.2163    0.2999    0.2269 H   0  0  0  0  0  0  0  0  0  0  0  0
    7.3520    0.9040   -1.5185 H   0  0  0  0  0  0  0  0  0  0  0  0
    6.0053   -1.7427    0.3720 H   0  0  0  0  0  0  0  0  0  0  0  0
    4.4637   -3.2803    1.3820 H   0  0  0  0  0  0  0  0  0  0  0  0
    2.0272   -2.7897    1.3916 H   0  0  0  0  0  0  0  0  0  0  0  0
   -0.0137   -2.3136    1.3637 H   0  0  0  0  0  0  0  0  0  0  0  0
   -2.5264   -3.2387    1.5085 H   0  0  0  0  0  0  0  0  0  0  0  0
   -2.9181    1.3183    2.4285 H   0  0  0  0  0  0  0  0  0  0  0  0
   -3.9326    0.0298    3.0994 H   0  0  0  0  0  0  0  0  0  0  0  0
   -4.7580    1.3270    2.2189 H   0  0  0  0  0  0  0  0  0  0  0  0
   -5.0171   -0.0704   -1.6609 H   0  0  0  0  0  0  0  0  0  0  0  0
   -3.5841    0.7057   -2.3654 H   0  0  0  0  0  0  0  0  0  0  0  0
   -3.3811   -0.9092   -1.6638 H   0  0  0  0  0  0  0  0  0  0  0  0
   -1.1041    3.0590   -0.8494 H   0  0  0  0  0  0  0  0  0  0  0  0
    3.4667    2.8965   -0.0647 H   0  0  0  0  0  0  0  0  0  0  0  0
    2.2482    2.0497    0.9994 H   0  0  0  0  0  0  0  0  0  0  0  0
    1.7369    2.9550   -0.4721 H   0  0  0  0  0  0  0  0  0  0  0  0
  1  2  1  0
  2  3  1  0
  3  4  2  0
  4  5  1  0
  5  6  2  0
  6  7  1  0
  7  8  1  0
  8  9  2  0
  9 10  1  0
 10 11  2  0
 11 12  1  0
 11 13  1  0
 13 14  2  0
 14 15  1  0
 15 16  2  0
 15 17  1  0
 17 18  1  0
 18 19  1  1
 18 20  1  0
 20 21  1  6
 20 22  1  0
 22 23  1  0
 23 24  2  0
 23 25  1  0
 25 26  2  0
  7 27  2  0
 27 28  1  0
 28 29  1  0
 27  3  1  0
 12  8  1  0
 18 13  1  0
 26 20  1  0
 26 10  1  0
  1 30  1  0
  1 31  1  0
  1 32  1  0
  4 33  1  0
  5 34  1  0
  6 35  1  0
 12 36  1  0
 14 37  1  0
 19 38  1  0
 19 39  1  0
 19 40  1  0
 21 41  1  0
 21 42  1  0
 21 43  1  0
 25 44  1  0
 29 45  1  0
 29 46  1  0
 29 47  1  0
M  END
