
     RDKit          3D

 41 45  0  0  0  0  0  0  0  0999 V2000
   -4.0457    0.8813    0.5189 C   0  0  0  0  0  0  0  0  0  0  0  0
   -2.8650    0.0350    0.2589 C   0  0  0  0  0  0  0  0  0  0  0  0
   -3.0226   -1.3246    0.0346 C   0  0  0  0  0  0  0  0  0  0  0  0
   -1.9264   -2.1177   -0.2081 C   0  0  0  0  0  0  0  0  0  0  0  0
   -2.1234   -3.4853   -0.4300 C   0  0  0  0  0  0  0  0  0  0  0  0
   -1.0723   -4.3384   -0.6790 C   0  0  0  0  0  0  0  0  0  0  0  0
    0.1954   -3.8118   -0.7057 C   0  0  0  0  0  0  0  0  0  0  0  0
    0.4475   -2.4471   -0.4895 C   0  0  0  0  0  0  0  0  0  0  0  0
   -0.6393   -1.6341   -0.2442 C   0  0  0  0  0  0  0  0  0  0  0  0
   -0.4571   -0.2711   -0.0216 C   0  0  0  0  0  0  0  0  0  0  0  0
   -1.5932    0.5259    0.2255 C   0  0  0  0  0  0  0  0  0  0  0  0
   -1.1317    1.8195    0.4095 C   0  0  0  0  0  0  0  0  0  0  0  0
   -1.8026    2.9852    0.6777 C   0  0  0  0  0  0  0  0  0  0  0  0
   -1.0348    4.1506    0.8103 C   0  0  0  0  0  0  0  0  0  0  0  0
    0.3302    4.1048    0.6737 C   0  0  0  0  0  0  0  0  0  0  0  0
    0.9910    2.9071    0.4009 C   0  0  0  0  0  0  0  0  0  0  0  0
    0.2309    1.7595    0.2706 C   0  0  0  0  0  0  0  0  0  0  0  0
    0.6332    0.4720    0.0063 N   0  0  0  0  0  0  0  0  0  0  0  0
    2.0108    0.1546   -0.1794 C   0  0  0  0  0  0  0  0  0  0  0  0
    2.7846   -0.1829    0.9130 C   0  0  0  0  0  0  0  0  0  0  0  0
    4.1295   -0.4626    0.8068 C   0  0  0  0  0  0  0  0  0  0  0  0
    4.7381   -0.4072   -0.4299 C   0  0  0  0  0  0  0  0  0  0  0  0
    3.9619   -0.0700   -1.5175 C   0  0  0  0  0  0  0  0  0  0  0  0
    2.6103    0.2126   -1.4205 C   0  0  0  0  0  0  0  0  0  0  0  0
   -4.0903    1.3167    1.5332 H   0  0  0  0  0  0  0  0  0  0  0  0
   -4.2506    1.6221   -0.2590 H   0  0  0  0  0  0  0  0  0  0  0  0
   -4.9636    0.1919    0.5080 H   0  0  0  0  0  0  0  0  0  0  0  0
   -4.0228   -1.7427    0.0553 H   0  0  0  0  0  0  0  0  0  0  0  0
   -3.1546   -3.8341   -0.3943 H   0  0  0  0  0  0  0  0  0  0  0  0
   -1.2694   -5.3966   -0.8465 H   0  0  0  0  0  0  0  0  0  0  0  0
    1.0264   -4.4868   -0.9027 H   0  0  0  0  0  0  0  0  0  0  0  0
    1.4538   -2.1196   -0.5266 H   0  0  0  0  0  0  0  0  0  0  0  0
   -2.8478    3.1119    0.7984 H   0  0  0  0  0  0  0  0  0  0  0  0
   -1.4951    5.1108    1.0226 H   0  0  0  0  0  0  0  0  0  0  0  0
    0.9316    4.9998    0.7745 H   0  0  0  0  0  0  0  0  0  0  0  0
    2.0658    2.8966    0.2978 H   0  0  0  0  0  0  0  0  0  0  0  0
    2.2973   -0.2253    1.8904 H   0  0  0  0  0  0  0  0  0  0  0  0
    4.7204   -0.7264    1.6807 H   0  0  0  0  0  0  0  0  0  0  0  0
    5.8102   -0.6232   -0.5605 H   0  0  0  0  0  0  0  0  0  0  0  0
    4.4460   -0.0281   -2.4870 H   0  0  0  0  0  0  0  0  0  0  0  0
    1.9933    0.4778   -2.2657 H   0  0  0  0  0  0  0  0  0  0  0  0
  1  2  1  0
  2  3  2  0
  3  4  1  0
  4  5  2  0
  5  6  1  0
  6  7  2  0
  7  8  1  0
  8  9  2  0
  9 10  1  0
 10 11  2  0
 11 12  1  0
 12 13  2  0
 13 14  1  0
 14 15  2  0
 15 16  1  0
 16 17  2  0
 17 18  1  0
 18 19  1  0
 19 20  2  0
 20 21  1  0
 21 22  2  0
 22 23  1  0
 23 24  2  0
 11  2  1  0
 17 12  1  0
 24 19  1  0
  9  4  1  0
 18 10  1  0
  1 25  1  0
  1 26  1  0
  1 27  1  0
  3 28  1  0
  5 29  1  0
  6 30  1  0
  7 31  1  0
  8 32  1  0
 13 33  1  0
 14 34  1  0
 15 35  1  0
 16 36  1  0
 20 37  1  0
 21 38  1  0
 22 39  1  0
 23 40  1  0
 24 41  1  0
M  END
