
     RDKit          3D

 40 42  0  0  0  0  0  0  0  0999 V2000
   -6.5688    4.0304   -0.4728 O   0  0  0  0  0  0  0  0  0  0  0  0
   -5.4635    4.1086    0.1576 N   0  0  0  0  0  4  0  0  0  0  0  0
   -5.1315    5.0974    0.9337 O   0  0  0  0  0  1  0  0  0  0  0  0
   -4.5259    3.0255   -0.0404 C   0  0  0  0  0  0  0  0  0  0  0  0
   -3.4565    2.7921    0.8338 C   0  0  0  0  0  0  0  0  0  0  0  0
   -2.7348    1.6806    0.6895 C   0  0  0  0  0  0  0  0  0  0  0  0
   -3.0095    0.7071   -0.3460 C   0  0  0  0  0  0  0  0  0  0  0  0
   -2.2035   -0.4893   -0.5114 C   0  0  0  0  0  0  0  0  0  0  0  0
   -1.4662   -1.5875   -0.6491 C   0  0  0  0  0  0  0  0  0  0  0  0
   -0.7844   -2.5820   -0.7795 C   0  0  0  0  0  0  0  0  0  0  0  0
   -1.3903   -3.6709   -1.5114 C   0  0  0  0  0  0  0  0  0  0  0  0
   -1.1062   -5.0122   -1.4330 C   0  0  0  0  0  0  0  0  0  0  0  0
   -0.1439   -5.4157   -0.6111 C   0  0  0  0  0  0  0  0  0  0  0  0
    0.5285   -4.4630    0.1293 C   0  0  0  0  0  0  0  0  0  0  0  0
    0.2894   -3.1995    0.1005 C   0  0  0  0  0  0  0  0  0  0  0  0
    1.2343   -2.2117    0.3328 C   0  0  0  0  0  0  0  0  0  0  0  0
    2.2425   -1.1682    0.5838 C   0  0  0  0  0  0  0  0  0  0  0  0
    3.1803   -0.1777    0.8275 C   0  0  0  0  0  0  0  0  0  0  0  0
    4.3950   -0.3327    0.1432 C   0  0  0  0  0  0  0  0  0  0  0  0
    5.3458    0.6790    0.0781 C   0  0  0  0  0  0  0  0  0  0  0  0
    5.0184    1.8568    0.7476 C   0  0  0  0  0  0  0  0  0  0  0  0
    5.9763    2.9581    0.6765 N   0  0  0  0  0  4  0  0  0  0  0  0
    7.1799    2.6475    0.1179 O   0  0  0  0  0  0  0  0  0  0  0  0
    5.7469    4.1839    1.0914 O   0  0  0  0  0  1  0  0  0  0  0  0
    3.8443    2.0368    1.4356 C   0  0  0  0  0  0  0  0  0  0  0  0
    2.9427    0.9825    1.4481 C   0  0  0  0  0  0  0  0  0  0  0  0
   -4.0255    1.1016   -1.0416 C   0  0  0  0  0  0  0  0  0  0  0  0
   -4.8626    2.1036   -1.1034 C   0  0  0  0  0  0  0  0  0  0  0  0
   -3.1566    3.5019    1.5854 H   0  0  0  0  0  0  0  0  0  0  0  0
   -1.9250    1.3561    1.3987 H   0  0  0  0  0  0  0  0  0  0  0  0
   -2.2429   -3.3583   -2.1302 H   0  0  0  0  0  0  0  0  0  0  0  0
   -1.7196   -5.6472   -2.0576 H   0  0  0  0  0  0  0  0  0  0  0  0
    0.1439   -6.4848   -0.5480 H   0  0  0  0  0  0  0  0  0  0  0  0
    1.4445   -4.8113    0.6482 H   0  0  0  0  0  0  0  0  0  0  0  0
    4.5056   -1.3260   -0.3242 H   0  0  0  0  0  0  0  0  0  0  0  0
    6.2203    0.5246   -0.5264 H   0  0  0  0  0  0  0  0  0  0  0  0
    3.6611    2.9726    1.9201 H   0  0  0  0  0  0  0  0  0  0  0  0
    1.9971    1.0670    2.0220 H   0  0  0  0  0  0  0  0  0  0  0  0
   -4.3220    0.2547   -1.8425 H   0  0  0  0  0  0  0  0  0  0  0  0
   -5.6576    2.2697   -1.7209 H   0  0  0  0  0  0  0  0  0  0  0  0
  1  2  2  0
  2  3  1  0
  2  4  1  0
  4  5  2  0
  5  6  1  0
  6  7  2  0
  7  8  1  0
  8  9  3  0
  9 10  1  0
 10 11  2  0
 11 12  1  0
 12 13  2  0
 13 14  1  0
 14 15  2  0
 15 16  1  0
 16 17  3  0
 17 18  1  0
 18 19  2  0
 19 20  1  0
 20 21  2  0
 21 22  1  0
 22 23  2  0
 22 24  1  0
 21 25  1  0
 25 26  2  0
  7 27  1  0
 27 28  2  0
 28  4  1  0
 15 10  1  0
 26 18  1  0
  5 29  1  0
  6 30  1  0
 11 31  1  0
 12 32  1  0
 13 33  1  0
 14 34  1  0
 19 35  1  0
 20 36  1  0
 25 37  1  0
 26 38  1  0
 27 39  1  0
 28 40  1  0
M  CHG  4   2   1   3  -1  22   1  24  -1
M  END
