
     RDKit          3D

 56 60  0  0  0  0  0  0  0  0999 V2000
    8.0067    0.2227   -0.3440 C   0  0  0  0  0  0  0  0  0  0  0  0
    7.3078   -0.8925   -1.0698 C   0  0  0  0  0  0  0  0  0  0  0  0
    5.9290   -0.6474   -1.2466 O   0  0  0  0  0  0  0  0  0  0  0  0
    5.0671   -0.4596   -0.1632 C   0  0  0  0  0  0  0  0  0  0  0  0
    5.5946   -0.5221    0.9760 O   0  0  0  0  0  0  0  0  0  0  0  0
    3.6452   -0.2067   -0.3397 C   0  0  0  0  0  0  0  0  0  0  0  0
    3.0625   -0.1366   -1.5651 C   0  0  0  0  0  0  0  0  0  0  0  0
    1.7033    0.1069   -1.6718 C   0  0  0  0  0  0  0  0  0  0  0  0
    0.8928    0.2867   -0.5423 C   0  0  0  0  0  0  0  0  0  0  0  0
   -0.5326    0.5354   -0.7530 C   0  0  0  0  0  0  0  0  0  0  0  0
   -1.3686   -0.6961   -0.3517 C   0  0  0  0  0  0  0  0  0  0  0  0
   -2.6295   -0.1598    0.0782 C   0  0  0  0  0  0  0  0  0  0  0  0
   -3.9782   -0.7569    0.2012 C   0  0  0  0  0  0  0  0  0  0  0  0
   -5.0691    0.1196    0.3392 C   0  0  0  0  0  0  0  0  0  0  0  0
   -6.3667   -0.3086    0.3552 C   0  0  0  0  0  0  0  0  0  0  0  0
   -6.6662   -1.6406    0.2353 C   0  0  0  0  0  0  0  0  0  0  0  0
   -5.6040   -2.5144    0.1017 C   0  0  0  0  0  0  0  0  0  0  0  0
   -5.8509   -3.8691    0.0057 C   0  0  0  0  0  0  0  0  0  0  0  0
   -4.8342   -4.7850   -0.0999 C   0  0  0  0  0  0  0  0  0  0  0  0
   -3.5241   -4.3754   -0.1126 C   0  0  0  0  0  0  0  0  0  0  0  0
   -3.2742   -2.9979   -0.0158 C   0  0  0  0  0  0  0  0  0  0  0  0
   -4.2739   -2.0761    0.0862 C   0  0  0  0  0  0  0  0  0  0  0  0
   -2.4449    1.1150    0.3241 N   0  0  0  0  0  0  0  0  0  0  0  0
   -1.1395    1.5189    0.0987 N   0  0  0  0  0  0  0  0  0  0  0  0
   -0.4852    2.6716    0.6098 C   0  0  0  0  0  0  0  0  0  0  0  0
    0.6832    3.1794    0.1260 C   0  0  0  0  0  0  0  0  0  0  0  0
    1.2940    4.2984    0.6662 C   0  0  0  0  0  0  0  0  0  0  0  0
    0.7110    4.9229    1.7224 C   0  0  0  0  0  0  0  0  0  0  0  0
    1.3087    6.0271    2.2596 F   0  0  0  0  0  0  0  0  0  0  0  0
   -0.4717    4.4499    2.2493 C   0  0  0  0  0  0  0  0  0  0  0  0
   -1.0667    3.3213    1.6877 C   0  0  0  0  0  0  0  0  0  0  0  0
    1.5080    0.2105    0.6758 C   0  0  0  0  0  0  0  0  0  0  0  0
    2.8718   -0.0337    0.7869 C   0  0  0  0  0  0  0  0  0  0  0  0
    9.1101    0.0827   -0.5231 H   0  0  0  0  0  0  0  0  0  0  0  0
    7.8799    0.1050    0.7611 H   0  0  0  0  0  0  0  0  0  0  0  0
    7.7285    1.2215   -0.7012 H   0  0  0  0  0  0  0  0  0  0  0  0
    7.5067   -1.8338   -0.5513 H   0  0  0  0  0  0  0  0  0  0  0  0
    7.7614   -0.9656   -2.0835 H   0  0  0  0  0  0  0  0  0  0  0  0
    3.6942   -0.2764   -2.4346 H   0  0  0  0  0  0  0  0  0  0  0  0
    1.2638    0.1579   -2.6608 H   0  0  0  0  0  0  0  0  0  0  0  0
   -0.7648    0.8002   -1.7835 H   0  0  0  0  0  0  0  0  0  0  0  0
   -1.4200   -1.2739   -1.3113 H   0  0  0  0  0  0  0  0  0  0  0  0
   -0.7241   -1.1719    0.4245 H   0  0  0  0  0  0  0  0  0  0  0  0
   -4.8611    1.1604    0.4343 H   0  0  0  0  0  0  0  0  0  0  0  0
   -7.2169    0.3672    0.4616 H   0  0  0  0  0  0  0  0  0  0  0  0
   -7.6781   -2.0203    0.2416 H   0  0  0  0  0  0  0  0  0  0  0  0
   -6.8983   -4.1862    0.0174 H   0  0  0  0  0  0  0  0  0  0  0  0
   -5.1316   -5.8396   -0.1718 H   0  0  0  0  0  0  0  0  0  0  0  0
   -2.7239   -5.0939   -0.1943 H   0  0  0  0  0  0  0  0  0  0  0  0
   -2.2590   -2.7244    0.0114 H   0  0  0  0  0  0  0  0  0  0  0  0
    1.1632    2.7144   -0.7156 H   0  0  0  0  0  0  0  0  0  0  0  0
    2.2172    4.6458    0.2351 H   0  0  0  0  0  0  0  0  0  0  0  0
   -0.8970    4.9789    3.0876 H   0  0  0  0  0  0  0  0  0  0  0  0
   -1.9938    2.9882    2.1357 H   0  0  0  0  0  0  0  0  0  0  0  0
    0.9062    0.3452    1.5549 H   0  0  0  0  0  0  0  0  0  0  0  0
    3.3315   -0.0892    1.7479 H   0  0  0  0  0  0  0  0  0  0  0  0
  1  2  1  0
  2  3  1  0
  3  4  1  0
  4  5  2  0
  4  6  1  0
  6  7  2  0
  7  8  1  0
  8  9  2  0
  9 10  1  0
 10 11  1  0
 11 12  1  0
 12 13  1  0
 13 14  2  0
 14 15  1  0
 15 16  2  0
 16 17  1  0
 17 18  2  0
 18 19  1  0
 19 20  2  0
 20 21  1  0
 21 22  2  0
 12 23  2  0
 23 24  1  0
 24 25  1  0
 25 26  2  0
 26 27  1  0
 27 28  2  0
 28 29  1  0
 28 30  1  0
 30 31  2  0
  9 32  1  0
 32 33  2  0
 33  6  1  0
 24 10  1  0
 31 25  1  0
 22 13  1  0
 22 17  1  0
  1 34  1  0
  1 35  1  0
  1 36  1  0
  2 37  1  0
  2 38  1  0
  7 39  1  0
  8 40  1  0
 10 41  1  0
 11 42  1  0
 11 43  1  0
 14 44  1  0
 15 45  1  0
 16 46  1  0
 18 47  1  0
 19 48  1  0
 20 49  1  0
 21 50  1  0
 26 51  1  0
 27 52  1  0
 30 53  1  0
 31 54  1  0
 32 55  1  0
 33 56  1  0
M  END
