
     RDKit          3D

 61 65  0  0  0  0  0  0  0  0999 V2000
    0.8937    4.5184    1.2464 C   0  0  0  0  0  0  0  0  0  0  0  0
    0.4198    3.7681    0.0100 C   0  0  0  0  0  0  0  0  0  0  0  0
    0.1287    2.4132    0.3160 O   0  0  0  0  0  0  0  0  0  0  0  0
   -0.3286    1.6312   -0.7434 C   0  0  0  0  0  0  0  0  0  0  0  0
   -0.4599    2.1544   -1.8971 O   0  0  0  0  0  0  0  0  0  0  0  0
   -0.6788    0.2322   -0.6475 C   0  0  0  0  0  0  0  0  0  0  0  0
    0.2047   -0.8049   -0.8522 C   0  0  0  0  0  0  0  0  0  0  0  0
    1.6223   -0.8064   -1.1910 C   0  0  0  0  0  0  0  0  0  0  0  0
    2.5295   -0.1651   -0.3746 C   0  0  0  0  0  0  0  0  0  0  0  0
    3.8552   -0.2088   -0.7292 C   0  0  0  0  0  0  0  0  0  0  0  0
    4.2484   -0.8737   -1.8646 C   0  0  0  0  0  0  0  0  0  0  0  0
    5.5886   -0.9466   -2.2674 C   0  0  0  0  0  0  0  0  0  0  0  0
    6.5298   -0.3252   -1.4857 C   0  0  0  0  0  0  0  0  0  0  0  0
    6.1291    0.3408   -0.3458 C   0  0  0  0  0  0  0  0  0  0  0  0
    7.1299    0.9375    0.3938 C   0  0  0  0  0  0  0  0  0  0  0  0
    6.7714    1.6044    1.5353 C   0  0  0  0  0  0  0  0  0  0  0  0
    5.4643    1.6859    1.9439 C   0  0  0  0  0  0  0  0  0  0  0  0
    4.4352    1.0861    1.2054 C   0  0  0  0  0  0  0  0  0  0  0  0
    4.7938    0.4186    0.0632 C   0  0  0  0  0  0  0  0  0  0  0  0
    3.3619   -1.4791   -2.6298 O   0  0  0  0  0  0  0  0  0  0  0  0
    2.1076   -1.4517   -2.3152 C   0  0  0  0  0  0  0  0  0  0  0  0
    1.2786   -2.0431   -3.0692 O   0  0  0  0  0  0  0  0  0  0  0  0
   -0.5267   -1.9185   -0.6781 N   0  0  0  0  0  0  0  0  0  0  0  0
   -1.7740   -1.6175   -0.3862 N   0  0  0  0  0  0  0  0  0  0  0  0
   -2.7830   -2.5812   -0.1454 C   0  0  0  0  0  0  0  0  0  0  0  0
   -3.3864   -3.2051   -1.2091 C   0  0  0  0  0  0  0  0  0  0  0  0
   -4.3658   -4.1445   -0.9665 C   0  0  0  0  0  0  0  0  0  0  0  0
   -4.7639   -4.4818    0.3129 C   0  0  0  0  0  0  0  0  0  0  0  0
   -4.1615   -3.8582    1.3873 C   0  0  0  0  0  0  0  0  0  0  0  0
   -4.6026   -4.2347    2.7530 C   0  0  0  0  0  0  0  0  0  0  0  0
   -3.1841   -2.9217    1.1251 C   0  0  0  0  0  0  0  0  0  0  0  0
   -1.9341   -0.2605   -0.3516 C   0  0  0  0  0  0  0  0  0  0  0  0
   -3.1761    0.4488   -0.0590 C   0  0  0  0  0  0  0  0  0  0  0  0
   -4.2099   -0.2349    0.1829 O   0  0  0  0  0  0  0  0  0  0  0  0
   -3.3074    1.8086   -0.0265 O   0  0  0  0  0  0  0  0  0  0  0  0
   -4.5158    2.4860    0.2593 C   0  0  0  0  0  0  0  0  0  0  0  0
   -5.6365    2.1940   -0.6747 C   0  0  0  0  0  0  0  0  0  0  0  0
    1.9401    4.2588    1.4839 H   0  0  0  0  0  0  0  0  0  0  0  0
    0.2619    4.2937    2.1229 H   0  0  0  0  0  0  0  0  0  0  0  0
    0.8758    5.6070    1.0600 H   0  0  0  0  0  0  0  0  0  0  0  0
   -0.4421    4.3077   -0.4221 H   0  0  0  0  0  0  0  0  0  0  0  0
    1.2599    3.8356   -0.7352 H   0  0  0  0  0  0  0  0  0  0  0  0
    2.1313    0.3264    0.4870 H   0  0  0  0  0  0  0  0  0  0  0  0
    5.8261   -1.4859   -3.1723 H   0  0  0  0  0  0  0  0  0  0  0  0
    7.5622   -0.3831   -1.7993 H   0  0  0  0  0  0  0  0  0  0  0  0
    8.1635    0.8772    0.0774 H   0  0  0  0  0  0  0  0  0  0  0  0
    7.5743    2.0751    2.1156 H   0  0  0  0  0  0  0  0  0  0  0  0
    5.1844    2.2182    2.8547 H   0  0  0  0  0  0  0  0  0  0  0  0
    3.4231    1.1665    1.5497 H   0  0  0  0  0  0  0  0  0  0  0  0
   -3.1383   -3.0045   -2.2412 H   0  0  0  0  0  0  0  0  0  0  0  0
   -4.8388   -4.6341   -1.7977 H   0  0  0  0  0  0  0  0  0  0  0  0
   -5.5320   -5.2188    0.5038 H   0  0  0  0  0  0  0  0  0  0  0  0
   -5.6748   -4.5236    2.6939 H   0  0  0  0  0  0  0  0  0  0  0  0
   -4.0613   -5.1707    3.0784 H   0  0  0  0  0  0  0  0  0  0  0  0
   -4.4526   -3.4123    3.4817 H   0  0  0  0  0  0  0  0  0  0  0  0
   -2.7215   -2.4420    1.9995 H   0  0  0  0  0  0  0  0  0  0  0  0
   -4.3746    3.5597    0.4009 H   0  0  0  0  0  0  0  0  0  0  0  0
   -4.8287    2.0826    1.2676 H   0  0  0  0  0  0  0  0  0  0  0  0
   -5.8014    3.0971   -1.3022 H   0  0  0  0  0  0  0  0  0  0  0  0
   -6.5927    2.0417   -0.1326 H   0  0  0  0  0  0  0  0  0  0  0  0
   -5.4412    1.3629   -1.3993 H   0  0  0  0  0  0  0  0  0  0  0  0
  1  2  1  0
  2  3  1  0
  3  4  1  0
  4  5  2  0
  4  6  1  0
  6  7  1  0
  7  8  1  0
  8  9  2  0
  9 10  1  0
 10 11  2  0
 11 12  1  0
 12 13  2  0
 13 14  1  0
 14 15  2  0
 15 16  1  0
 16 17  2  0
 17 18  1  0
 18 19  2  0
 11 20  1  0
 20 21  1  0
 21 22  2  0
  7 23  2  0
 23 24  1  0
 24 25  1  0
 25 26  2  0
 26 27  1  0
 27 28  2  0
 28 29  1  0
 29 30  1  0
 29 31  2  0
 24 32  1  0
 32 33  1  0
 33 34  2  0
 33 35  1  0
 35 36  1  0
 36 37  1  0
 32  6  2  0
 21  8  1  0
 31 25  1  0
 19 10  1  0
 19 14  1  0
  1 38  1  0
  1 39  1  0
  1 40  1  0
  2 41  1  0
  2 42  1  0
  9 43  1  0
 12 44  1  0
 13 45  1  0
 15 46  1  0
 16 47  1  0
 17 48  1  0
 18 49  1  0
 26 50  1  0
 27 51  1  0
 28 52  1  0
 30 53  1  0
 30 54  1  0
 30 55  1  0
 31 56  1  0
 36 57  1  0
 36 58  1  0
 37 59  1  0
 37 60  1  0
 37 61  1  0
M  END
