
     RDKit          3D

 33 33  0  0  0  0  0  0  0  0999 V2000
    6.3444    0.0370    0.5268 C   0  0  0  0  0  0  0  0  0  0  0  0
    5.7150    1.0477   -0.3880 C   0  0  0  0  0  0  0  0  0  0  0  0
    4.3459    1.2010   -0.2502 O   0  0  0  0  0  0  0  0  0  0  0  0
    3.4390    0.1871   -0.4147 C   0  0  0  0  0  0  0  0  0  0  0  0
    3.8756   -0.9524   -0.7070 O   0  0  0  0  0  0  0  0  0  0  0  0
    1.9974    0.4298   -0.2489 C   0  0  0  0  0  0  0  0  0  0  0  0
    1.1802   -0.5827   -0.4063 C   0  0  0  0  0  0  0  0  0  0  0  0
   -0.2431   -0.4201   -0.2574 C   0  0  0  0  0  0  0  0  0  0  0  0
   -0.8008    0.7869    0.0421 C   0  0  0  0  0  0  0  0  0  0  0  0
   -2.1745    0.8970    0.1971 C   0  0  0  0  0  0  0  0  0  0  0  0
   -2.9884   -0.2034    0.0520 C   0  0  0  0  0  0  0  0  0  0  0  0
   -4.3991   -0.0828    0.2144 N   0  0  0  0  0  0  0  0  0  0  0  0
   -5.0319   -1.0520    1.1122 C   0  0  0  0  0  0  0  0  0  0  0  0
   -5.1458    0.9431   -0.4778 C   0  0  0  0  0  0  0  0  0  0  0  0
   -2.3903   -1.4232   -0.2553 C   0  0  0  0  0  0  0  0  0  0  0  0
   -1.0347   -1.5651   -0.4151 C   0  0  0  0  0  0  0  0  0  0  0  0
    7.3505    0.4111    0.8079 H   0  0  0  0  0  0  0  0  0  0  0  0
    5.7909   -0.0566    1.5025 H   0  0  0  0  0  0  0  0  0  0  0  0
    6.5139   -0.9439    0.0437 H   0  0  0  0  0  0  0  0  0  0  0  0
    6.1745    2.0487   -0.0962 H   0  0  0  0  0  0  0  0  0  0  0  0
    6.0575    0.8518   -1.4134 H   0  0  0  0  0  0  0  0  0  0  0  0
    1.7012    1.4326   -0.0111 H   0  0  0  0  0  0  0  0  0  0  0  0
    1.6033   -1.5739   -0.6548 H   0  0  0  0  0  0  0  0  0  0  0  0
   -0.2150    1.6799    0.1666 H   0  0  0  0  0  0  0  0  0  0  0  0
   -2.6185    1.8576    0.4298 H   0  0  0  0  0  0  0  0  0  0  0  0
   -4.8048   -2.0726    0.7473 H   0  0  0  0  0  0  0  0  0  0  0  0
   -4.5803   -0.9521    2.1394 H   0  0  0  0  0  0  0  0  0  0  0  0
   -6.1085   -0.8789    1.1747 H   0  0  0  0  0  0  0  0  0  0  0  0
   -4.5690    1.8900   -0.3753 H   0  0  0  0  0  0  0  0  0  0  0  0
   -6.1255    1.1309    0.0026 H   0  0  0  0  0  0  0  0  0  0  0  0
   -5.2295    0.7405   -1.5619 H   0  0  0  0  0  0  0  0  0  0  0  0
   -3.0428   -2.2885   -0.3747 H   0  0  0  0  0  0  0  0  0  0  0  0
   -0.5867   -2.5242   -0.6570 H   0  0  0  0  0  0  0  0  0  0  0  0
  1  2  1  0
  2  3  1  0
  3  4  1  0
  4  5  2  0
  4  6  1  0
  6  7  2  0
  7  8  1  0
  8  9  2  0
  9 10  1  0
 10 11  2  0
 11 12  1  0
 12 13  1  0
 12 14  1  0
 11 15  1  0
 15 16  2  0
 16  8  1  0
  1 17  1  0
  1 18  1  0
  1 19  1  0
  2 20  1  0
  2 21  1  0
  6 22  1  0
  7 23  1  0
  9 24  1  0
 10 25  1  0
 13 26  1  0
 13 27  1  0
 13 28  1  0
 14 29  1  0
 14 30  1  0
 14 31  1  0
 15 32  1  0
 16 33  1  0
M  END
