
     RDKit          3D

 83 88  0  0  0  0  0  0  0  0999 V2000
    5.3560    6.4338    2.8603 C   0  0  0  0  0  0  0  0  0  0  0  0
    5.3013    6.0612    1.5360 O   0  0  0  0  0  0  0  0  0  0  0  0
    4.4495    5.0337    1.2801 C   0  0  0  0  0  0  0  0  0  0  0  0
    4.8644    3.7878    2.0170 C   0  0  0  0  0  0  0  0  0  0  0  0
    3.9355    2.6572    1.7208 C   0  0  0  0  0  0  0  0  0  0  0  0
    4.2975    1.5290    1.1410 C   0  0  0  0  0  0  0  0  0  0  0  0
    3.0925    0.7022    1.0527 C   0  0  0  0  0  0  0  0  0  0  0  0
    2.1088    1.4491    1.6058 N   0  0  0  0  0  0  0  0  0  0  0  0
    2.5194    2.6063    2.0214 C   0  0  0  0  0  0  0  0  0  0  0  0
    1.6053    3.4821    2.6132 C   0  0  0  0  0  0  0  0  0  0  0  0
    0.2365    3.3655    2.3272 C   0  0  0  0  0  0  0  0  0  0  0  0
   -0.4364    2.3030    1.7233 C   0  0  0  0  0  0  0  0  0  0  0  0
   -0.4597    0.9958    2.0100 N   0  0  0  0  0  0  0  0  0  0  0  0
   -1.2043    0.3770    1.0768 C   0  0  0  0  0  0  0  0  0  0  0  0
   -1.4313   -1.0152    0.9115 C   0  0  0  0  0  0  0  0  0  0  0  0
   -0.3870   -1.8895    0.7193 N   0  0  0  0  0  0  0  0  0  0  0  0
   -0.7898   -3.1079    0.5992 C   0  0  0  0  0  0  0  0  0  0  0  0
    0.1639   -4.1279    0.4093 C   0  0  0  0  0  0  0  0  0  0  0  0
    1.4860   -3.8157    0.0492 C   0  0  0  0  0  0  0  0  0  0  0  0
    2.1143   -2.5756    0.0690 C   0  0  0  0  0  0  0  0  0  0  0  0
    2.1998   -1.6329    1.0253 N   0  0  0  0  0  0  0  0  0  0  0  0
    2.8454   -0.5861    0.5013 C   0  0  0  0  0  0  0  0  0  0  0  0
    3.2156   -0.8332   -0.8351 C   0  0  0  0  0  0  0  0  0  0  0  0
    2.7507   -2.0920   -1.1031 C   0  0  0  0  0  0  0  0  0  0  0  0
    2.9343   -2.7961   -2.4334 C   0  0  0  0  0  0  0  0  0  0  0  0
    1.6672   -2.8019   -3.2147 C   0  0  0  0  0  0  0  0  0  0  0  0
    1.8390   -3.4511   -4.4180 O   0  0  0  0  0  0  0  0  0  0  0  0
    2.7756   -2.8800   -5.2287 C   0  0  0  0  0  0  0  0  0  0  0  0
   -2.2399   -3.1190    0.7127 C   0  0  0  0  0  0  0  0  0  0  0  0
   -3.0688   -4.3570    0.6775 C   0  0  0  0  0  0  0  0  0  0  0  0
   -4.5179   -4.1185    1.0087 C   0  0  0  0  0  0  0  0  0  0  0  0
   -4.6661   -3.5753    2.2898 O   0  0  0  0  0  0  0  0  0  0  0  0
   -6.0056   -3.3568    2.5924 C   0  0  0  0  0  0  0  0  0  0  0  0
   -2.6148   -1.8692    0.8957 C   0  0  0  0  0  0  0  0  0  0  0  0
   -1.7103    1.2878    0.1361 C   0  0  0  0  0  0  0  0  0  0  0  0
   -2.4942    1.2059   -0.9954 C   0  0  0  0  0  0  0  0  0  0  0  0
   -3.1032    0.0059   -1.4935 C   0  0  0  0  0  0  0  0  0  0  0  0
   -2.5803   -0.8515   -2.2438 O   0  0  0  0  0  0  0  0  0  0  0  0
   -4.4287   -0.2256   -1.1135 O   0  0  0  0  0  0  0  0  0  0  0  0
   -5.1016   -1.3745   -1.5891 C   0  0  0  0  0  0  0  0  0  0  0  0
   -2.7737    2.3602   -1.6971 C   0  0  0  0  0  0  0  0  0  0  0  0
   -3.6043    2.3034   -2.9138 C   0  0  0  0  0  0  0  0  0  0  0  0
   -4.0520    1.1970   -3.3031 O   0  0  0  0  0  0  0  0  0  0  0  0
   -3.8992    3.4455   -3.6340 O   0  0  0  0  0  0  0  0  0  0  0  0
   -2.2924    3.5840   -1.2944 C   0  0  0  0  0  0  0  0  0  0  0  0
   -1.5245    3.6693   -0.1862 C   0  0  0  0  0  0  0  0  0  0  0  0
   -1.2180    2.5155    0.5511 C   0  0  0  0  0  0  0  0  0  0  0  0
    4.3435    6.7450    3.2512 H   0  0  0  0  0  0  0  0  0  0  0  0
    5.9618    7.3801    2.9928 H   0  0  0  0  0  0  0  0  0  0  0  0
    5.7754    5.6532    3.5068 H   0  0  0  0  0  0  0  0  0  0  0  0
    4.4308    4.7727    0.1839 H   0  0  0  0  0  0  0  0  0  0  0  0
    3.4145    5.3468    1.5529 H   0  0  0  0  0  0  0  0  0  0  0  0
    5.8798    3.5164    1.6714 H   0  0  0  0  0  0  0  0  0  0  0  0
    4.9460    3.9290    3.1187 H   0  0  0  0  0  0  0  0  0  0  0  0
    5.2836    1.2615    0.7946 H   0  0  0  0  0  0  0  0  0  0  0  0
    2.0018    4.2317    3.2801 H   0  0  0  0  0  0  0  0  0  0  0  0
   -0.2867    4.3051    2.6300 H   0  0  0  0  0  0  0  0  0  0  0  0
    0.0221    0.5249    2.9073 H   0  0  0  0  0  0  0  0  0  0  0  0
   -0.1902   -5.1333    0.5577 H   0  0  0  0  0  0  0  0  0  0  0  0
    1.9993   -4.7415   -0.3093 H   0  0  0  0  0  0  0  0  0  0  0  0
    1.8417   -1.7499    2.0854 H   0  0  0  0  0  0  0  0  0  0  0  0
    3.7709   -0.1862   -1.5386 H   0  0  0  0  0  0  0  0  0  0  0  0
    3.7962   -2.3402   -2.9130 H   0  0  0  0  0  0  0  0  0  0  0  0
    3.1932   -3.8438   -2.1882 H   0  0  0  0  0  0  0  0  0  0  0  0
    0.8648   -3.3832   -2.6718 H   0  0  0  0  0  0  0  0  0  0  0  0
    1.2722   -1.7589   -3.3956 H   0  0  0  0  0  0  0  0  0  0  0  0
    2.4975   -1.8114   -5.4593 H   0  0  0  0  0  0  0  0  0  0  0  0
    2.7639   -3.4439   -6.1976 H   0  0  0  0  0  0  0  0  0  0  0  0
    3.7794   -2.9874   -4.7902 H   0  0  0  0  0  0  0  0  0  0  0  0
   -2.6576   -5.0653    1.4356 H   0  0  0  0  0  0  0  0  0  0  0  0
   -2.9421   -4.8221   -0.3120 H   0  0  0  0  0  0  0  0  0  0  0  0
   -5.0905   -5.0959    1.0119 H   0  0  0  0  0  0  0  0  0  0  0  0
   -5.0021   -3.4555    0.3001 H   0  0  0  0  0  0  0  0  0  0  0  0
   -6.4345   -2.6537    1.8598 H   0  0  0  0  0  0  0  0  0  0  0  0
   -6.5795   -4.3209    2.6052 H   0  0  0  0  0  0  0  0  0  0  0  0
   -6.0442   -2.8942    3.5929 H   0  0  0  0  0  0  0  0  0  0  0  0
   -3.6139   -1.4999    1.0237 H   0  0  0  0  0  0  0  0  0  0  0  0
   -5.9316   -1.5799   -0.8848 H   0  0  0  0  0  0  0  0  0  0  0  0
   -5.4758   -1.2130   -2.6362 H   0  0  0  0  0  0  0  0  0  0  0  0
   -4.3793   -2.2141   -1.6536 H   0  0  0  0  0  0  0  0  0  0  0  0
   -4.7308    3.5150   -4.1788 H   0  0  0  0  0  0  0  0  0  0  0  0
   -2.5192    4.4931   -1.8538 H   0  0  0  0  0  0  0  0  0  0  0  0
   -1.1147    4.6140    0.1836 H   0  0  0  0  0  0  0  0  0  0  0  0
  1  2  1  0
  2  3  1  0
  3  4  1  0
  4  5  1  0
  5  6  2  0
  6  7  1  0
  7  8  2  0
  8  9  1  0
  9 10  2  0
 10 11  1  0
 11 12  2  0
 12 13  1  0
 13 14  1  0
 14 15  2  0
 15 16  1  0
 16 17  2  0
 17 18  1  0
 18 19  2  0
 19 20  1  0
 20 21  1  0
 21 22  1  0
 22 23  2  0
 23 24  1  0
 24 25  1  0
 25 26  1  0
 26 27  1  0
 27 28  1  0
 17 29  1  0
 29 30  1  0
 30 31  1  0
 31 32  1  0
 32 33  1  0
 29 34  2  0
 14 35  1  0
 35 36  2  0
 36 37  1  0
 37 38  2  0
 37 39  1  0
 39 40  1  0
 36 41  1  0
 41 42  1  0
 42 43  2  0
 42 44  1  0
 41 45  2  0
 45 46  1  0
 46 47  2  0
  9  5  1  0
 47 12  1  0
 22  7  1  0
 47 35  1  0
 34 15  1  0
 24 20  2  0
  1 48  1  0
  1 49  1  0
  1 50  1  0
  3 51  1  0
  3 52  1  0
  4 53  1  0
  4 54  1  0
  6 55  1  0
 10 56  1  0
 11 57  1  0
 13 58  1  0
 18 59  1  0
 19 60  1  0
 21 61  1  0
 23 62  1  0
 25 63  1  0
 25 64  1  0
 26 65  1  0
 26 66  1  0
 28 67  1  0
 28 68  1  0
 28 69  1  0
 30 70  1  0
 30 71  1  0
 31 72  1  0
 31 73  1  0
 33 74  1  0
 33 75  1  0
 33 76  1  0
 34 77  1  0
 40 78  1  0
 40 79  1  0
 40 80  1  0
 44 81  1  0
 45 82  1  0
 46 83  1  0
M  END
