
     RDKit          3D

 46 48  0  0  0  0  0  0  0  0999 V2000
    4.7710   -2.3784   -0.2677 O   0  0  0  0  0  0  0  0  0  0  0  0
    5.2301   -1.2132   -0.2455 C   0  0  0  0  0  0  0  0  0  0  0  0
    6.5912   -0.9879   -0.1637 O   0  0  0  0  0  0  0  0  0  0  0  0
    4.3035   -0.0559   -0.3073 C   0  0  0  0  0  0  0  0  0  0  0  0
    3.7497    0.2443    1.0546 C   0  0  0  0  0  0  0  0  0  0  0  0
    2.8071    1.4061    1.0232 C   0  0  0  0  0  0  0  0  0  0  0  0
    1.5859    1.1983    0.1651 C   0  0  0  0  0  0  0  0  0  0  0  0
    0.8087    0.0320    0.7116 C   0  0  0  0  0  0  0  0  0  0  0  0
   -0.4021   -0.2745    0.0146 N   0  0  0  0  0  0  0  0  0  0  0  0
   -0.4153   -1.1802   -0.9792 C   0  0  0  0  0  0  0  0  0  0  0  0
    0.7043   -1.8544   -1.4208 C   0  0  0  0  0  0  0  0  0  0  0  0
    0.5963   -2.7679   -2.4558 C   0  0  0  0  0  0  0  0  0  0  0  0
   -0.5817   -3.0584   -3.0929 C   0  0  0  0  0  0  0  0  0  0  0  0
   -1.7098   -2.3895   -2.6602 C   0  0  0  0  0  0  0  0  0  0  0  0
   -1.6166   -1.4764   -1.6298 C   0  0  0  0  0  0  0  0  0  0  0  0
   -2.7637   -0.8338   -1.2403 C   0  0  0  0  0  0  0  0  0  0  0  0
   -3.8761   -1.0793   -1.8098 O   0  0  0  0  0  0  0  0  0  0  0  0
   -2.7048    0.0892   -0.2176 C   0  0  0  0  0  0  0  0  0  0  0  0
   -3.8716    0.7539    0.1706 C   0  0  0  0  0  0  0  0  0  0  0  0
   -3.8557    1.6890    1.1747 C   0  0  0  0  0  0  0  0  0  0  0  0
   -5.3631    2.4798    1.6066 S   0  0  0  0  0  6  0  0  0  0  0  0
   -5.0470    3.8849    2.0396 O   0  0  0  0  0  0  0  0  0  0  0  0
   -6.2856    2.5681    0.4099 O   0  0  0  0  0  0  0  0  0  0  0  0
   -6.1695    1.6376    2.8070 O   0  0  0  0  0  0  0  0  0  0  0  0
   -2.6647    1.9669    1.7999 C   0  0  0  0  0  0  0  0  0  0  0  0
   -1.4839    1.3341    1.4498 C   0  0  0  0  0  0  0  0  0  0  0  0
   -1.5310    0.3909    0.4309 C   0  0  0  0  0  0  0  0  0  0  0  0
    7.2694   -1.7383   -0.3172 H   0  0  0  0  0  0  0  0  0  0  0  0
    3.4909   -0.2082   -1.0121 H   0  0  0  0  0  0  0  0  0  0  0  0
    4.8990    0.8289   -0.6545 H   0  0  0  0  0  0  0  0  0  0  0  0
    4.6451    0.4668    1.7097 H   0  0  0  0  0  0  0  0  0  0  0  0
    3.2957   -0.6457    1.5294 H   0  0  0  0  0  0  0  0  0  0  0  0
    3.3446    2.3594    0.7402 H   0  0  0  0  0  0  0  0  0  0  0  0
    2.4826    1.5529    2.0994 H   0  0  0  0  0  0  0  0  0  0  0  0
    1.9305    1.0275   -0.8745 H   0  0  0  0  0  0  0  0  0  0  0  0
    0.9667    2.1234    0.1051 H   0  0  0  0  0  0  0  0  0  0  0  0
    0.5774    0.1600    1.7925 H   0  0  0  0  0  0  0  0  0  0  0  0
    1.5055   -0.8587    0.6128 H   0  0  0  0  0  0  0  0  0  0  0  0
    1.6630   -1.6803   -0.9809 H   0  0  0  0  0  0  0  0  0  0  0  0
    1.4926   -3.2742   -2.7724 H   0  0  0  0  0  0  0  0  0  0  0  0
   -0.6565   -3.7777   -3.9038 H   0  0  0  0  0  0  0  0  0  0  0  0
   -2.6412   -2.6150   -3.1598 H   0  0  0  0  0  0  0  0  0  0  0  0
   -4.8070    0.5209   -0.3367 H   0  0  0  0  0  0  0  0  0  0  0  0
   -7.0589    1.3479    2.5205 H   0  0  0  0  0  0  0  0  0  0  0  0
   -2.6495    2.7053    2.5920 H   0  0  0  0  0  0  0  0  0  0  0  0
   -0.5553    1.5796    1.9430 H   0  0  0  0  0  0  0  0  0  0  0  0
  1  2  2  0
  2  3  1  0
  2  4  1  0
  4  5  1  0
  5  6  1  0
  6  7  1  0
  7  8  1  0
  8  9  1  0
  9 10  1  0
 10 11  2  0
 11 12  1  0
 12 13  2  0
 13 14  1  0
 14 15  2  0
 15 16  1  0
 16 17  2  0
 16 18  1  0
 18 19  2  0
 19 20  1  0
 20 21  1  0
 21 22  2  0
 21 23  2  0
 21 24  1  0
 20 25  2  0
 25 26  1  0
 26 27  2  0
 27  9  1  0
 15 10  1  0
 27 18  1  0
  3 28  1  0
  4 29  1  0
  4 30  1  0
  5 31  1  0
  5 32  1  0
  6 33  1  0
  6 34  1  0
  7 35  1  0
  7 36  1  0
  8 37  1  0
  8 38  1  0
 11 39  1  0
 12 40  1  0
 13 41  1  0
 14 42  1  0
 19 43  1  0
 24 44  1  0
 25 45  1  0
 26 46  1  0
M  END
