
     RDKit          3D

 46 51  0  0  0  0  0  0  0  0999 V2000
    3.4078   -3.1821   -0.4589 C   0  0  0  0  0  0  0  0  0  0  0  0
    2.1087   -3.4556   -0.1082 C   0  0  0  0  0  0  0  0  0  0  0  0
    1.2048   -2.4322    0.1948 C   0  0  0  0  0  0  0  0  0  0  0  0
    1.6724   -1.1579    0.1257 C   0  0  0  0  0  0  0  0  0  0  0  0
    2.9763   -0.8427   -0.2243 C   0  0  0  0  0  0  0  0  0  0  0  0
    3.8660   -1.8737   -0.5237 C   0  0  0  0  0  0  0  0  0  0  0  0
    3.4471    0.4915   -0.2913 N   0  0  0  0  0  0  0  0  0  0  0  0
    2.6354    1.6290   -0.0086 C   0  0  0  0  0  0  0  0  0  0  0  0
    3.1188    2.9120   -0.0816 C   0  0  0  0  0  0  0  0  0  0  0  0
    2.3190    3.9780    0.1944 C   0  0  0  0  0  0  0  0  0  0  0  0
    0.9851    3.8414    0.5615 C   0  0  0  0  0  0  0  0  0  0  0  0
    0.5104    2.5408    0.6312 C   0  0  0  0  0  0  0  0  0  0  0  0
    1.2949    1.4609    0.3588 C   0  0  0  0  0  0  0  0  0  0  0  0
    0.7086    0.0202    0.4531 B   0  0  0  0  0  0  0  0  0  0  0  0
   -0.8280   -0.1466    0.1980 C   0  0  0  0  0  0  0  0  0  0  0  0
   -1.3389   -0.0356   -1.0888 C   0  0  0  0  0  0  0  0  0  0  0  0
   -0.4707    0.2251   -2.1467 C   0  0  0  0  0  0  0  0  0  0  0  0
   -1.0280    0.3252   -3.3986 C   0  0  0  0  0  0  0  0  0  0  0  0
   -2.3772    0.1811   -3.6395 C   0  0  0  0  0  0  0  0  0  0  0  0
   -3.2178   -0.0756   -2.5853 C   0  0  0  0  0  0  0  0  0  0  0  0
   -2.6894   -0.1808   -1.3236 C   0  0  0  0  0  0  0  0  0  0  0  0
   -3.4944   -0.4410   -0.2095 C   0  0  0  0  0  0  0  0  0  0  0  0
   -2.9969   -0.5525    1.0683 C   0  0  0  0  0  0  0  0  0  0  0  0
   -3.8577   -0.8133    2.1338 C   0  0  0  0  0  0  0  0  0  0  0  0
   -3.3617   -0.9273    3.4280 C   0  0  0  0  0  0  0  0  0  0  0  0
   -2.0031   -0.7731    3.6049 C   0  0  0  0  0  0  0  0  0  0  0  0
   -1.1321   -0.5136    2.5590 C   0  0  0  0  0  0  0  0  0  0  0  0
   -1.6450   -0.4039    1.2797 C   0  0  0  0  0  0  0  0  0  0  0  0
    4.1358   -3.9516   -0.7003 H   0  0  0  0  0  0  0  0  0  0  0  0
    1.7730   -4.4682   -0.0634 H   0  0  0  0  0  0  0  0  0  0  0  0
    0.1906   -2.6063    0.4705 H   0  0  0  0  0  0  0  0  0  0  0  0
    4.8823   -1.6174   -0.7960 H   0  0  0  0  0  0  0  0  0  0  0  0
    4.4405    0.6886   -0.5601 H   0  0  0  0  0  0  0  0  0  0  0  0
    4.1573    3.0253   -0.3670 H   0  0  0  0  0  0  0  0  0  0  0  0
    2.7576    4.9751    0.1201 H   0  0  0  0  0  0  0  0  0  0  0  0
    0.3561    4.7005    0.7796 H   0  0  0  0  0  0  0  0  0  0  0  0
   -0.5208    2.3725    0.9120 H   0  0  0  0  0  0  0  0  0  0  0  0
    0.5764    0.3374   -1.9627 H   0  0  0  0  0  0  0  0  0  0  0  0
   -0.3606    0.5309   -4.2500 H   0  0  0  0  0  0  0  0  0  0  0  0
   -2.7665    0.2716   -4.6634 H   0  0  0  0  0  0  0  0  0  0  0  0
   -4.2700   -0.1897   -2.7611 H   0  0  0  0  0  0  0  0  0  0  0  0
   -4.5365   -0.5536   -0.3865 H   0  0  0  0  0  0  0  0  0  0  0  0
   -4.8967   -0.9211    1.9245 H   0  0  0  0  0  0  0  0  0  0  0  0
   -4.0328   -1.1307    4.2591 H   0  0  0  0  0  0  0  0  0  0  0  0
   -1.6171   -0.8639    4.6279 H   0  0  0  0  0  0  0  0  0  0  0  0
   -0.0830   -0.3971    2.7143 H   0  0  0  0  0  0  0  0  0  0  0  0
  1  2  2  0
  2  3  1  0
  3  4  2  0
  4  5  1  0
  5  6  2  0
  5  7  1  0
  7  8  1  0
  8  9  2  0
  9 10  1  0
 10 11  2  0
 11 12  1  0
 12 13  2  0
 13 14  1  0
 14 15  1  0
 15 16  1  0
 16 17  2  0
 17 18  1  0
 18 19  2  0
 19 20  1  0
 20 21  2  0
 21 22  1  0
 22 23  2  0
 23 24  1  0
 24 25  2  0
 25 26  1  0
 26 27  2  0
 27 28  1  0
  6  1  1  0
 13  8  1  0
 28 15  2  0
 14  4  1  0
 21 16  1  0
 28 23  1  0
  1 29  1  0
  2 30  1  0
  3 31  1  0
  6 32  1  0
  7 33  1  0
  9 34  1  0
 10 35  1  0
 11 36  1  0
 12 37  1  0
 17 38  1  0
 18 39  1  0
 19 40  1  0
 20 41  1  0
 22 42  1  0
 24 43  1  0
 25 44  1  0
 26 45  1  0
 27 46  1  0
M  END
