
     RDKit          3D

 38 41  0  0  0  0  0  0  0  0999 V2000
   -6.1932   -1.2665    0.1015 C   0  0  0  0  0  0  0  0  0  0  0  0
   -5.4124   -0.0642    0.2338 N   0  0  0  0  0  0  0  0  0  0  0  0
   -6.0854    1.2078    0.4952 C   0  0  0  0  0  0  0  0  0  0  0  0
   -3.9980   -0.0488    0.1247 C   0  0  0  0  0  0  0  0  0  0  0  0
   -3.3788    0.0864   -1.1027 C   0  0  0  0  0  0  0  0  0  0  0  0
   -2.0126    0.1020   -1.1741 C   0  0  0  0  0  0  0  0  0  0  0  0
   -1.2226   -0.0133   -0.0544 C   0  0  0  0  0  0  0  0  0  0  0  0
    0.2284    0.0006   -0.1034 C   0  0  0  0  0  0  0  0  0  0  0  0
    0.9138   -0.0980    0.9699 N   0  0  0  0  0  0  0  0  0  0  0  0
    2.3590   -0.0897    0.9753 C   0  0  0  0  0  0  0  0  0  0  0  0
    3.4968   -0.1804    2.2699 S   0  0  0  0  0  0  0  0  0  0  0  0
    4.9171   -0.0744    1.3442 C   0  0  0  0  0  0  0  0  0  0  0  0
    6.2869   -0.0727    1.6539 C   0  0  0  0  0  0  0  0  0  0  0  0
    7.2269    0.0321    0.6660 C   0  0  0  0  0  0  0  0  0  0  0  0
    8.5542    0.0401    0.8951 F   0  0  0  0  0  0  0  0  0  0  0  0
    6.7679    0.1341   -0.6266 C   0  0  0  0  0  0  0  0  0  0  0  0
    5.4477    0.1325   -0.9203 C   0  0  0  0  0  0  0  0  0  0  0  0
    4.4454    0.0261    0.0725 C   0  0  0  0  0  0  0  0  0  0  0  0
    3.1298    0.0155   -0.0912 N   0  0  0  0  0  4  0  0  0  0  0  0
    2.3650    0.1040   -1.4691 B   0  0  0  0  0  4  0  0  0  0  0  0
    2.8518    1.3020   -2.1622 F   0  0  0  0  0  0  0  0  0  0  0  0
    2.7564   -1.0276   -2.2950 F   0  0  0  0  0  0  0  0  0  0  0  0
    0.9485    0.1177   -1.2692 O   0  0  0  0  0  0  0  0  0  0  0  0
   -1.8397   -0.1485    1.1728 C   0  0  0  0  0  0  0  0  0  0  0  0
   -3.2268   -0.1645    1.2448 C   0  0  0  0  0  0  0  0  0  0  0  0
   -6.4387   -1.7353    1.0546 H   0  0  0  0  0  0  0  0  0  0  0  0
   -7.1468   -0.9870   -0.3995 H   0  0  0  0  0  0  0  0  0  0  0  0
   -5.6992   -2.0246   -0.5452 H   0  0  0  0  0  0  0  0  0  0  0  0
   -6.9694    1.2950   -0.1739 H   0  0  0  0  0  0  0  0  0  0  0  0
   -5.4372    2.0611    0.2975 H   0  0  0  0  0  0  0  0  0  0  0  0
   -6.4729    1.1837    1.5300 H   0  0  0  0  0  0  0  0  0  0  0  0
   -3.9605    0.1811   -2.0131 H   0  0  0  0  0  0  0  0  0  0  0  0
   -1.4940    0.2071   -2.1200 H   0  0  0  0  0  0  0  0  0  0  0  0
    6.5799   -0.1553    2.6788 H   0  0  0  0  0  0  0  0  0  0  0  0
    7.4779    0.2209   -1.4709 H   0  0  0  0  0  0  0  0  0  0  0  0
    5.1909    0.2193   -1.9830 H   0  0  0  0  0  0  0  0  0  0  0  0
   -1.2799   -0.2447    2.0927 H   0  0  0  0  0  0  0  0  0  0  0  0
   -3.6764   -0.2739    2.2319 H   0  0  0  0  0  0  0  0  0  0  0  0
  1  2  1  0
  2  3  1  0
  2  4  1  0
  4  5  2  0
  5  6  1  0
  6  7  2  0
  7  8  1  0
  8  9  2  0
  9 10  1  0
 10 11  1  0
 11 12  1  0
 12 13  2  0
 13 14  1  0
 14 15  1  0
 14 16  2  0
 16 17  1  0
 17 18  2  0
 18 19  1  0
 19 20  1  0
 20 21  1  0
 20 22  1  0
 20 23  1  0
  7 24  1  0
 24 25  2  0
 25  4  1  0
 23  8  1  0
 19 10  2  0
 18 12  1  0
  1 26  1  0
  1 27  1  0
  1 28  1  0
  3 29  1  0
  3 30  1  0
  3 31  1  0
  5 32  1  0
  6 33  1  0
 13 34  1  0
 16 35  1  0
 17 36  1  0
 24 37  1  0
 25 38  1  0
M  CHG  2  19   1  20  -1
M  END
