
     RDKit          3D

 29 31  0  0  0  0  0  0  0  0999 V2000
    6.0880   -1.0028    0.2959 F   0  0  0  0  0  0  0  0  0  0  0  0
    4.8652   -0.4428    0.1194 C   0  0  0  0  0  0  0  0  0  0  0  0
    4.5950    0.8413    0.5467 C   0  0  0  0  0  0  0  0  0  0  0  0
    3.3572    1.4120    0.3701 C   0  0  0  0  0  0  0  0  0  0  0  0
    2.3512    0.6613   -0.2614 C   0  0  0  0  0  0  0  0  0  0  0  0
    1.1138    1.2736   -0.4718 N   0  0  0  0  0  0  0  0  0  0  0  0
   -0.1149    0.6243   -0.1722 C   0  0  0  0  0  0  0  0  0  0  0  0
   -0.1305   -0.5956    0.4629 C   0  0  0  0  0  0  0  0  0  0  0  0
   -1.3269   -1.2505    0.7300 C   0  0  0  0  0  0  0  0  0  0  0  0
   -2.4922   -0.6300    0.3353 C   0  0  0  0  0  0  0  0  0  0  0  0
   -3.6932   -1.2649    0.5920 C   0  0  0  0  0  0  0  0  0  0  0  0
   -4.8586   -0.6561    0.2037 C   0  0  0  0  0  0  0  0  0  0  0  0
   -4.8311    0.5734   -0.4344 C   0  0  0  0  0  0  0  0  0  0  0  0
   -3.6505    1.2175   -0.6971 C   0  0  0  0  0  0  0  0  0  0  0  0
   -2.4607    0.5922   -0.2987 C   0  0  0  0  0  0  0  0  0  0  0  0
   -1.2966    1.2056   -0.5468 N   0  0  0  0  0  0  0  0  0  0  0  0
    2.6196   -0.6090   -0.6848 C   0  0  0  0  0  0  0  0  0  0  0  0
    3.8635   -1.1818   -0.5065 C   0  0  0  0  0  0  0  0  0  0  0  0
    5.3524    1.4389    1.0351 H   0  0  0  0  0  0  0  0  0  0  0  0
    3.1243    2.4037    0.6922 H   0  0  0  0  0  0  0  0  0  0  0  0
    1.0257    2.2599   -0.8674 H   0  0  0  0  0  0  0  0  0  0  0  0
    0.7799   -1.0988    0.8102 H   0  0  0  0  0  0  0  0  0  0  0  0
   -1.3300   -2.2187    1.2336 H   0  0  0  0  0  0  0  0  0  0  0  0
   -3.6532   -2.2187    1.0907 H   0  0  0  0  0  0  0  0  0  0  0  0
   -5.8099   -1.1469    0.4007 H   0  0  0  0  0  0  0  0  0  0  0  0
   -5.7736    1.0133   -0.7211 H   0  0  0  0  0  0  0  0  0  0  0  0
   -3.5969    2.1886   -1.1991 H   0  0  0  0  0  0  0  0  0  0  0  0
    1.8532   -1.1916   -1.1969 H   0  0  0  0  0  0  0  0  0  0  0  0
    4.0297   -2.1974   -0.8601 H   0  0  0  0  0  0  0  0  0  0  0  0
  1  2  1  0
  2  3  2  0
  3  4  1  0
  4  5  2  0
  5  6  1  0
  6  7  1  0
  7  8  2  0
  8  9  1  0
  9 10  2  0
 10 11  1  0
 11 12  2  0
 12 13  1  0
 13 14  2  0
 14 15  1  0
 15 16  2  0
  5 17  1  0
 17 18  2  0
 18  2  1  0
 16  7  1  0
 15 10  1  0
  3 19  1  0
  4 20  1  0
  6 21  1  0
  8 22  1  0
  9 23  1  0
 11 24  1  0
 12 25  1  0
 13 26  1  0
 14 27  1  0
 17 28  1  0
 18 29  1  0
M  END
