
     RDKit          3D

 31 33  0  0  0  0  0  0  0  0999 V2000
   -5.8066    0.9905   -0.6594 C   0  0  0  0  0  0  0  0  0  0  0  0
   -5.2923    0.0343    0.2420 O   0  0  0  0  0  0  0  0  0  0  0  0
   -3.9130   -0.1699    0.3969 C   0  0  0  0  0  0  0  0  0  0  0  0
   -3.4789   -1.1109    1.2861 C   0  0  0  0  0  0  0  0  0  0  0  0
   -2.1119   -1.3379    1.4633 C   0  0  0  0  0  0  0  0  0  0  0  0
   -1.1852   -0.6297    0.7569 C   0  0  0  0  0  0  0  0  0  0  0  0
    0.2540   -0.9008    0.9741 C   0  0  0  0  0  0  0  0  0  0  0  0
    0.6907   -1.8498    1.8707 C   0  0  0  0  0  0  0  0  0  0  0  0
    2.3884   -1.7310    1.7065 S   0  0  0  0  0  0  0  0  0  0  0  0
    2.4457   -0.5032    0.5280 C   0  0  0  0  0  0  0  0  0  0  0  0
    3.6093    0.1204   -0.1044 C   0  0  0  0  0  0  0  0  0  0  0  0
    4.8728   -0.2921    0.2536 C   0  0  0  0  0  0  0  0  0  0  0  0
    5.9788    0.2981   -0.3450 C   0  0  0  0  0  0  0  0  0  0  0  0
    5.8638    1.2647   -1.2682 N   0  0  0  0  0  0  0  0  0  0  0  0
    4.6449    1.6796   -1.6297 C   0  0  0  0  0  0  0  0  0  0  0  0
    3.5051    1.1120   -1.0518 C   0  0  0  0  0  0  0  0  0  0  0  0
    1.1724   -0.2471    0.3202 N   0  0  0  0  0  0  0  0  0  0  0  0
   -1.6316    0.3115   -0.1321 C   0  0  0  0  0  0  0  0  0  0  0  0
   -2.9890    0.5519   -0.3224 C   0  0  0  0  0  0  0  0  0  0  0  0
   -5.2351    1.9258   -0.6638 H   0  0  0  0  0  0  0  0  0  0  0  0
   -5.8012    0.5297   -1.6793 H   0  0  0  0  0  0  0  0  0  0  0  0
   -6.8468    1.2636   -0.3430 H   0  0  0  0  0  0  0  0  0  0  0  0
   -4.1926   -1.6856    1.8582 H   0  0  0  0  0  0  0  0  0  0  0  0
   -1.8536   -2.1001    2.1863 H   0  0  0  0  0  0  0  0  0  0  0  0
    0.0842   -2.5091    2.5207 H   0  0  0  0  0  0  0  0  0  0  0  0
    5.0228   -1.0569    0.9823 H   0  0  0  0  0  0  0  0  0  0  0  0
    6.9663   -0.0303   -0.0595 H   0  0  0  0  0  0  0  0  0  0  0  0
    4.5457    2.4602   -2.3750 H   0  0  0  0  0  0  0  0  0  0  0  0
    2.5195    1.4361   -1.3332 H   0  0  0  0  0  0  0  0  0  0  0  0
   -0.8982    0.8748   -0.6938 H   0  0  0  0  0  0  0  0  0  0  0  0
   -3.3282    1.3012   -1.0306 H   0  0  0  0  0  0  0  0  0  0  0  0
  1  2  1  0
  2  3  1  0
  3  4  2  0
  4  5  1  0
  5  6  2  0
  6  7  1  0
  7  8  2  0
  8  9  1  0
  9 10  1  0
 10 11  1  0
 11 12  2  0
 12 13  1  0
 13 14  2  0
 14 15  1  0
 15 16  2  0
 10 17  2  0
  6 18  1  0
 18 19  2  0
 19  3  1  0
 17  7  1  0
 16 11  1  0
  1 20  1  0
  1 21  1  0
  1 22  1  0
  4 23  1  0
  5 24  1  0
  8 25  1  0
 12 26  1  0
 13 27  1  0
 15 28  1  0
 16 29  1  0
 18 30  1  0
 19 31  1  0
M  END
