
     RDKit          3D

 37 41  0  0  0  0  0  0  0  0999 V2000
   -8.8930    0.4308    0.7984 C   0  0  0  0  0  0  0  0  0  0  0  0
   -8.7875    1.6565    0.2025 C   0  0  0  0  0  0  0  0  0  0  0  0
   -7.1073    1.8048   -0.0624 S   0  0  0  0  0  0  0  0  0  0  0  0
   -6.6020    0.3168    0.5878 C   0  0  0  0  0  0  0  0  0  0  0  0
   -5.2165   -0.1922    0.6700 C   0  0  0  0  0  0  0  0  0  0  0  0
   -4.7876   -1.3846    1.1883 C   0  0  0  0  0  0  0  0  0  0  0  0
   -3.4720   -1.6279    1.1520 C   0  0  0  0  0  0  0  0  0  0  0  0
   -2.6698   -0.6727    0.6043 C   0  0  0  0  0  0  0  0  0  0  0  0
   -1.1977   -0.6907    0.4426 C   0  0  0  0  0  0  0  0  0  0  0  0
   -0.3243   -1.6731    0.8092 C   0  0  0  0  0  0  0  0  0  0  0  0
    0.9732   -1.4656    0.5603 C   0  0  0  0  0  0  0  0  0  0  0  0
    1.3147   -0.2881   -0.0398 C   0  0  0  0  0  0  0  0  0  0  0  0
    2.6735    0.1674   -0.4140 C   0  0  0  0  0  0  0  0  0  0  0  0
    3.0182    1.3470   -1.0154 C   0  0  0  0  0  0  0  0  0  0  0  0
    4.3146    1.5538   -1.2640 C   0  0  0  0  0  0  0  0  0  0  0  0
    5.1865    0.5710   -0.8971 C   0  0  0  0  0  0  0  0  0  0  0  0
    6.6596    0.5784   -1.0712 C   0  0  0  0  0  0  0  0  0  0  0  0
    7.5351   -0.4063   -0.7040 C   0  0  0  0  0  0  0  0  0  0  0  0
    8.8406   -0.1894   -0.9584 C   0  0  0  0  0  0  0  0  0  0  0  0
    9.1727    0.9932   -1.5597 C   0  0  0  0  0  0  0  0  0  0  0  0
    7.6677    1.7653   -1.7529 S   0  0  0  0  0  0  0  0  0  0  0  0
    4.1763   -0.6147   -0.2157 S   0  0  0  0  0  0  0  0  0  0  0  0
   -0.1810    0.4970   -0.2405 S   0  0  0  0  0  0  0  0  0  0  0  0
   -3.7695    0.5452    0.1515 S   0  0  0  0  0  0  0  0  0  0  0  0
   -7.7606   -0.2627    0.9978 C   0  0  0  0  0  0  0  0  0  0  0  0
   -9.8910    0.0451    1.0975 H   0  0  0  0  0  0  0  0  0  0  0  0
   -9.6124    2.3547   -0.0346 H   0  0  0  0  0  0  0  0  0  0  0  0
   -5.5176   -2.1135    1.6198 H   0  0  0  0  0  0  0  0  0  0  0  0
   -3.0080   -2.5627    1.5435 H   0  0  0  0  0  0  0  0  0  0  0  0
   -0.7157   -2.5937    1.2928 H   0  0  0  0  0  0  0  0  0  0  0  0
    1.7718   -2.1958    0.8155 H   0  0  0  0  0  0  0  0  0  0  0  0
    2.2160    2.0745   -1.2688 H   0  0  0  0  0  0  0  0  0  0  0  0
    4.7019    2.4779   -1.7487 H   0  0  0  0  0  0  0  0  0  0  0  0
    7.1889   -1.3495   -0.2149 H   0  0  0  0  0  0  0  0  0  0  0  0
    9.6560   -0.9130   -0.7084 H   0  0  0  0  0  0  0  0  0  0  0  0
   10.1855    1.3359   -1.8401 H   0  0  0  0  0  0  0  0  0  0  0  0
   -7.7394   -1.2736    1.4767 H   0  0  0  0  0  0  0  0  0  0  0  0
  1  2  2  0
  2  3  1  0
  3  4  1  0
  4  5  1  0
  5  6  2  0
  6  7  1  0
  7  8  2  0
  8  9  1  0
  9 10  2  0
 10 11  1  0
 11 12  2  0
 12 13  1  0
 13 14  2  0
 14 15  1  0
 15 16  2  0
 16 17  1  0
 17 18  2  0
 18 19  1  0
 19 20  2  0
 20 21  1  0
 16 22  1  0
 12 23  1  0
  8 24  1  0
  4 25  2  0
 25  1  1  0
 24  5  1  0
 23  9  1  0
 22 13  1  0
 21 17  1  0
  1 26  1  0
  2 27  1  0
  6 28  1  0
  7 29  1  0
 10 30  1  0
 11 31  1  0
 14 32  1  0
 15 33  1  0
 18 34  1  0
 19 35  1  0
 20 36  1  0
 25 37  1  0
M  END
