
     RDKit          3D

 56 59  0  0  0  0  0  0  0  0999 V2000
   -5.4712   -5.6522   -0.2594 C   0  0  0  0  0  0  0  0  0  0  0  0
   -4.6532   -4.4160   -0.2027 C   0  0  0  0  0  0  0  0  0  0  0  0
   -5.2614   -3.1939   -0.3541 C   0  0  0  0  0  0  0  0  0  0  0  0
   -4.5045   -2.0600   -0.3011 C   0  0  0  0  0  0  0  0  0  0  0  0
   -3.1391   -2.0601   -0.1011 C   0  0  0  0  0  0  0  0  0  0  0  0
   -2.4512   -0.7807   -0.0662 C   0  0  0  0  0  0  0  0  0  0  0  0
   -1.1255   -0.6623    0.1205 C   0  0  0  0  0  0  0  0  0  0  0  0
   -0.4973    0.6408    0.1452 C   0  0  0  0  0  0  0  0  0  0  0  0
   -1.2078    1.7991    0.0911 N   0  0  0  0  0  0  0  0  0  0  0  0
   -0.4011    2.8388    0.1656 C   0  0  0  0  0  0  0  0  0  0  0  0
   -0.7275    4.2770    0.1469 C   0  0  0  0  0  0  0  0  0  0  0  0
    0.2895    5.2172    0.2386 C   0  0  0  0  0  0  0  0  0  0  0  0
    0.0020    6.5849    0.2227 C   0  0  0  0  0  0  0  0  0  0  0  0
   -1.2973    6.9862    0.1155 C   0  0  0  0  0  0  0  0  0  0  0  0
   -1.6242    8.4335    0.0968 C   0  0  0  0  0  0  0  0  0  0  0  0
   -2.3087    6.0352    0.0243 C   0  0  0  0  0  0  0  0  0  0  0  0
   -2.0357    4.6857    0.0390 C   0  0  0  0  0  0  0  0  0  0  0  0
    0.8386    2.3346    0.2673 N   0  0  0  0  0  0  0  0  0  0  0  0
    0.8081    0.9581    0.2548 C   0  0  0  0  0  0  0  0  0  0  0  0
    2.0136    0.1680    0.2605 C   0  0  0  0  0  0  0  0  0  0  0  0
    2.1695   -1.0826   -0.0647 C   0  0  0  0  0  0  0  0  0  0  0  0
    3.4689   -1.7918   -0.0124 C   0  0  0  0  0  0  0  0  0  0  0  0
    4.6486   -1.2376    0.3739 C   0  0  0  0  0  0  0  0  0  0  0  0
    5.8486   -1.9591    0.4041 C   0  0  0  0  0  0  0  0  0  0  0  0
    5.8136   -3.2782    0.0250 C   0  0  0  0  0  0  0  0  0  0  0  0
    7.1072   -4.0254    0.0661 C   0  0  0  0  0  0  0  0  0  0  0  0
    4.6380   -3.8732   -0.3720 C   0  0  0  0  0  0  0  0  0  0  0  0
    3.4768   -3.1196   -0.3856 C   0  0  0  0  0  0  0  0  0  0  0  0
   -2.5388   -3.2771    0.0490 C   0  0  0  0  0  0  0  0  0  0  0  0
   -3.3076   -4.4534   -0.0036 C   0  0  0  0  0  0  0  0  0  0  0  0
   -5.8965   -5.9318    0.7246 H   0  0  0  0  0  0  0  0  0  0  0  0
   -4.9119   -6.5110   -0.6821 H   0  0  0  0  0  0  0  0  0  0  0  0
   -6.3441   -5.4857   -0.9475 H   0  0  0  0  0  0  0  0  0  0  0  0
   -6.3143   -3.1159   -0.5124 H   0  0  0  0  0  0  0  0  0  0  0  0
   -5.0090   -1.1014   -0.4240 H   0  0  0  0  0  0  0  0  0  0  0  0
   -2.9889    0.1594   -0.1927 H   0  0  0  0  0  0  0  0  0  0  0  0
   -0.6149   -1.5953    0.2770 H   0  0  0  0  0  0  0  0  0  0  0  0
    1.3175    4.9006    0.3234 H   0  0  0  0  0  0  0  0  0  0  0  0
    0.7750    7.3368    0.2926 H   0  0  0  0  0  0  0  0  0  0  0  0
   -2.5163    8.6157    0.7312 H   0  0  0  0  0  0  0  0  0  0  0  0
   -0.8016    9.0269    0.5478 H   0  0  0  0  0  0  0  0  0  0  0  0
   -1.8440    8.8084   -0.9240 H   0  0  0  0  0  0  0  0  0  0  0  0
   -3.3150    6.4233   -0.0583 H   0  0  0  0  0  0  0  0  0  0  0  0
   -2.8215    3.9552   -0.0318 H   0  0  0  0  0  0  0  0  0  0  0  0
    1.7248    2.8803    0.3459 H   0  0  0  0  0  0  0  0  0  0  0  0
    2.9571    0.6523    0.5950 H   0  0  0  0  0  0  0  0  0  0  0  0
    1.3028   -1.6105   -0.4251 H   0  0  0  0  0  0  0  0  0  0  0  0
    4.6896   -0.2106    0.6716 H   0  0  0  0  0  0  0  0  0  0  0  0
    6.7665   -1.4769    0.7190 H   0  0  0  0  0  0  0  0  0  0  0  0
    6.9637   -5.0808   -0.1911 H   0  0  0  0  0  0  0  0  0  0  0  0
    7.8548   -3.5165   -0.5866 H   0  0  0  0  0  0  0  0  0  0  0  0
    7.4638   -3.9436    1.1323 H   0  0  0  0  0  0  0  0  0  0  0  0
    4.6776   -4.9061   -0.6559 H   0  0  0  0  0  0  0  0  0  0  0  0
    2.5620   -3.6007   -0.6996 H   0  0  0  0  0  0  0  0  0  0  0  0
   -1.4752   -3.3339    0.2074 H   0  0  0  0  0  0  0  0  0  0  0  0
   -2.7728   -5.3737    0.1217 H   0  0  0  0  0  0  0  0  0  0  0  0
  1  2  1  0
  2  3  2  0
  3  4  1  0
  4  5  2  0
  5  6  1  0
  6  7  2  0
  7  8  1  0
  8  9  1  0
  9 10  2  0
 10 11  1  0
 11 12  2  0
 12 13  1  0
 13 14  2  0
 14 15  1  0
 14 16  1  0
 16 17  2  0
 10 18  1  0
 18 19  1  0
 19 20  1  0
 20 21  2  0
 21 22  1  0
 22 23  2  0
 23 24  1  0
 24 25  2  0
 25 26  1  0
 25 27  1  0
 27 28  2  0
  5 29  1  0
 29 30  2  0
 30  2  1  0
 19  8  2  0
 28 22  1  0
 17 11  1  0
  1 31  1  0
  1 32  1  0
  1 33  1  0
  3 34  1  0
  4 35  1  0
  6 36  1  0
  7 37  1  0
 12 38  1  0
 13 39  1  0
 15 40  1  0
 15 41  1  0
 15 42  1  0
 16 43  1  0
 17 44  1  0
 18 45  1  0
 20 46  1  0
 21 47  1  0
 23 48  1  0
 24 49  1  0
 26 50  1  0
 26 51  1  0
 26 52  1  0
 27 53  1  0
 28 54  1  0
 29 55  1  0
 30 56  1  0
M  END
