
     RDKit          3D

 10 10  0  0  0  0  0  0  0  0999 V2000
    0.3200    1.0968   -0.0800 C   0  0  0  0  0  0  0  0  0  0  0  0
    1.1885    0.0426    0.1163 C   0  0  0  0  0  0  0  0  0  0  0  0
    0.3909   -1.0840    0.1055 C   0  0  0  0  0  0  0  0  0  0  0  0
   -0.8894   -0.7169   -0.0877 N   0  0  0  0  0  0  0  0  0  0  0  0
   -0.9689    0.6211   -0.2061 C   0  0  0  0  0  0  0  0  0  0  0  0
    0.5658    2.1605   -0.1346 H   0  0  0  0  0  0  0  0  0  0  0  0
    2.2668    0.1087    0.2487 H   0  0  0  0  0  0  0  0  0  0  0  0
    0.7533   -2.1037    0.2344 H   0  0  0  0  0  0  0  0  0  0  0  0
   -1.7438   -1.3313   -0.1472 H   0  0  0  0  0  0  0  0  0  0  0  0
   -1.8830    1.2064   -0.3703 H   0  0  0  0  0  0  0  0  0  0  0  0
  1  2  1  0
  2  3  2  0
  3  4  1  0
  4  5  1  0
  5  1  2  0
  1  6  1  0
  2  7  1  0
  3  8  1  0
  4  9  1  0
  5 10  1  0
M  END
