
     RDKit          3D

 85 91  0  0  0  0  0  0  0  0999 V2000
   11.7831    2.3344    0.8883 C   0  0  0  0  0  0  0  0  0  0  0  0
   11.2678    2.9469   -0.3630 C   0  0  0  0  0  0  0  0  0  0  0  0
    9.8366    2.7274   -0.6178 C   0  0  0  0  0  0  0  0  0  0  0  0
    9.4213    1.3346   -0.8647 C   0  0  0  0  0  0  0  0  0  0  0  0
    9.6222    0.3336    0.1973 C   0  0  0  0  0  0  0  0  0  0  0  0
    9.1136   -1.0192   -0.2657 C   0  0  0  0  0  0  0  0  0  0  0  0
    7.7588   -1.0958   -0.6361 N   0  0  0  0  0  0  0  0  0  0  0  0
    7.2992   -0.9465   -1.9676 C   0  0  0  0  0  0  0  0  0  0  0  0
    8.1215   -0.7649   -2.8821 O   0  0  0  0  0  0  0  0  0  0  0  0
    5.8904   -1.0013   -2.3016 C   0  0  0  0  0  0  0  0  0  0  0  0
    5.4982   -0.8261   -3.6087 C   0  0  0  0  0  0  0  0  0  0  0  0
    4.1613   -0.8554   -3.9249 C   0  0  0  0  0  0  0  0  0  0  0  0
    3.1693   -1.0569   -2.9775 C   0  0  0  0  0  0  0  0  0  0  0  0
    3.5507   -1.2369   -1.6662 C   0  0  0  0  0  0  0  0  0  0  0  0
    2.5858   -1.4190   -0.7310 C   0  0  0  0  0  0  0  0  0  0  0  0
    1.1536   -1.6316   -0.9587 C   0  0  0  0  0  0  0  0  0  0  0  0
    0.4269   -2.1957   -1.9400 C   0  0  0  0  0  0  0  0  0  0  0  0
   -0.8984   -2.3113   -1.7918 C   0  0  0  0  0  0  0  0  0  0  0  0
   -1.4551   -1.8386   -0.6169 C   0  0  0  0  0  0  0  0  0  0  0  0
   -2.8934   -1.8683   -0.2985 C   0  0  0  0  0  0  0  0  0  0  0  0
   -3.7539   -2.4983   -1.1609 C   0  0  0  0  0  0  0  0  0  0  0  0
   -5.1095   -2.5396   -0.9254 C   0  0  0  0  0  0  0  0  0  0  0  0
   -5.6474   -1.9359    0.2071 C   0  0  0  0  0  0  0  0  0  0  0  0
   -4.7941   -1.3049    1.0727 C   0  0  0  0  0  0  0  0  0  0  0  0
   -5.3451   -0.7112    2.1826 C   0  0  0  0  0  0  0  0  0  0  0  0
   -4.5226   -0.0532    3.0913 C   0  0  0  0  0  0  0  0  0  0  0  0
   -3.1844   -0.0119    2.8602 C   0  0  0  0  0  0  0  0  0  0  0  0
   -2.6332   -0.6209    1.7246 C   0  0  0  0  0  0  0  0  0  0  0  0
   -3.4030   -1.2716    0.8164 C   0  0  0  0  0  0  0  0  0  0  0  0
   -6.7983   -0.7436    2.4442 C   0  0  0  0  0  0  0  0  0  0  0  0
   -7.2301   -0.1843    3.4723 O   0  0  0  0  0  0  0  0  0  0  0  0
   -7.6821   -1.3951    1.5499 N   0  0  0  0  0  0  0  0  0  0  0  0
   -9.1221   -1.4408    1.7488 C   0  0  0  0  0  0  0  0  0  0  0  0
   -9.7516   -0.2686    1.0408 C   0  0  0  0  0  0  0  0  0  0  0  0
   -9.2787    1.0620    1.5195 C   0  0  0  0  0  0  0  0  0  0  0  0
   -9.9374    2.2069    0.7706 C   0  0  0  0  0  0  0  0  0  0  0  0
  -11.4265    2.2154    0.9134 C   0  0  0  0  0  0  0  0  0  0  0  0
  -11.9396    3.4071    0.1049 C   0  0  0  0  0  0  0  0  0  0  0  0
   -7.0761   -1.9985    0.4132 C   0  0  0  0  0  0  0  0  0  0  0  0
   -7.8290   -2.5872   -0.4035 O   0  0  0  0  0  0  0  0  0  0  0  0
   -0.0819   -1.2671    0.1936 S   0  0  0  0  0  0  0  0  0  0  0  0
    3.0019   -1.5707    0.6120 C   0  0  0  0  0  0  0  0  0  0  0  0
    4.3336   -1.5323    0.8949 C   0  0  0  0  0  0  0  0  0  0  0  0
    5.3254   -1.3537   -0.0353 C   0  0  0  0  0  0  0  0  0  0  0  0
    4.9190   -1.2035   -1.3444 C   0  0  0  0  0  0  0  0  0  0  0  0
    6.7477   -1.3040    0.3464 C   0  0  0  0  0  0  0  0  0  0  0  0
    7.0591   -1.4480    1.5550 O   0  0  0  0  0  0  0  0  0  0  0  0
   11.0355    2.0222    1.6334 H   0  0  0  0  0  0  0  0  0  0  0  0
   12.3463    3.1779    1.4235 H   0  0  0  0  0  0  0  0  0  0  0  0
   12.5010    1.4912    0.7463 H   0  0  0  0  0  0  0  0  0  0  0  0
   11.9146    2.5148   -1.2065 H   0  0  0  0  0  0  0  0  0  0  0  0
   11.5489    4.0487   -0.4392 H   0  0  0  0  0  0  0  0  0  0  0  0
    9.1884    3.1978    0.1908 H   0  0  0  0  0  0  0  0  0  0  0  0
    9.4943    3.3266   -1.5330 H   0  0  0  0  0  0  0  0  0  0  0  0
    8.3385    1.3111   -1.2507 H   0  0  0  0  0  0  0  0  0  0  0  0
    9.9754    1.0004   -1.8037 H   0  0  0  0  0  0  0  0  0  0  0  0
    9.2383    0.6029    1.1861 H   0  0  0  0  0  0  0  0  0  0  0  0
   10.7332    0.1561    0.3170 H   0  0  0  0  0  0  0  0  0  0  0  0
    9.7466   -1.3796   -1.1145 H   0  0  0  0  0  0  0  0  0  0  0  0
    9.2946   -1.7669    0.5627 H   0  0  0  0  0  0  0  0  0  0  0  0
    6.2677   -0.6689   -4.3512 H   0  0  0  0  0  0  0  0  0  0  0  0
    3.8798   -0.7131   -4.9693 H   0  0  0  0  0  0  0  0  0  0  0  0
    2.1337   -1.0211   -3.2721 H   0  0  0  0  0  0  0  0  0  0  0  0
    0.9288   -2.6168   -2.8579 H   0  0  0  0  0  0  0  0  0  0  0  0
   -1.5420   -2.7684   -2.5810 H   0  0  0  0  0  0  0  0  0  0  0  0
   -3.4094   -2.9835   -2.0477 H   0  0  0  0  0  0  0  0  0  0  0  0
   -5.8088   -3.0291   -1.5873 H   0  0  0  0  0  0  0  0  0  0  0  0
   -4.9931    0.4047    3.9577 H   0  0  0  0  0  0  0  0  0  0  0  0
   -2.5135    0.4938    3.5495 H   0  0  0  0  0  0  0  0  0  0  0  0
   -1.5652   -0.5552    1.5917 H   0  0  0  0  0  0  0  0  0  0  0  0
   -9.2777   -1.2660    2.8404 H   0  0  0  0  0  0  0  0  0  0  0  0
   -9.5576   -2.4004    1.4609 H   0  0  0  0  0  0  0  0  0  0  0  0
  -10.8537   -0.3975    1.1264 H   0  0  0  0  0  0  0  0  0  0  0  0
   -9.5514   -0.3070   -0.0705 H   0  0  0  0  0  0  0  0  0  0  0  0
   -9.4185    1.1924    2.5967 H   0  0  0  0  0  0  0  0  0  0  0  0
   -8.1945    1.1446    1.2893 H   0  0  0  0  0  0  0  0  0  0  0  0
   -9.7094    2.1536   -0.3215 H   0  0  0  0  0  0  0  0  0  0  0  0
   -9.5243    3.1611    1.1333 H   0  0  0  0  0  0  0  0  0  0  0  0
  -11.8590    1.2994    0.4974 H   0  0  0  0  0  0  0  0  0  0  0  0
  -11.7184    2.3916    1.9771 H   0  0  0  0  0  0  0  0  0  0  0  0
  -12.9143    3.1772   -0.3734 H   0  0  0  0  0  0  0  0  0  0  0  0
  -12.0699    4.2911    0.7330 H   0  0  0  0  0  0  0  0  0  0  0  0
  -11.2089    3.6406   -0.6993 H   0  0  0  0  0  0  0  0  0  0  0  0
    2.2333   -1.7154    1.3851 H   0  0  0  0  0  0  0  0  0  0  0  0
    4.6375   -1.6521    1.9430 H   0  0  0  0  0  0  0  0  0  0  0  0
  1  2  1  0
  2  3  1  0
  3  4  1  0
  4  5  1  0
  5  6  1  0
  6  7  1  0
  7  8  1  0
  8  9  2  0
  8 10  1  0
 10 11  1  0
 11 12  2  0
 12 13  1  0
 13 14  2  0
 14 15  1  0
 15 16  1  0
 16 17  2  0
 17 18  1  0
 18 19  2  0
 19 20  1  0
 20 21  2  0
 21 22  1  0
 22 23  2  0
 23 24  1  0
 24 25  2  0
 25 26  1  0
 26 27  2  0
 27 28  1  0
 28 29  2  0
 25 30  1  0
 30 31  2  0
 30 32  1  0
 32 33  1  0
 33 34  1  0
 34 35  1  0
 35 36  1  0
 36 37  1  0
 37 38  1  0
 32 39  1  0
 39 40  2  0
 19 41  1  0
 15 42  2  0
 42 43  1  0
 43 44  2  0
 44 45  1  0
 44 46  1  0
 46 47  2  0
 46  7  1  0
 45 10  2  0
 45 14  1  0
 41 16  1  0
 29 20  1  0
 39 23  1  0
 29 24  1  0
  1 48  1  0
  1 49  1  0
  1 50  1  0
  2 51  1  0
  2 52  1  0
  3 53  1  0
  3 54  1  0
  4 55  1  0
  4 56  1  0
  5 57  1  0
  5 58  1  0
  6 59  1  0
  6 60  1  0
 11 61  1  0
 12 62  1  0
 13 63  1  0
 17 64  1  0
 18 65  1  0
 21 66  1  0
 22 67  1  0
 26 68  1  0
 27 69  1  0
 28 70  1  0
 33 71  1  0
 33 72  1  0
 34 73  1  0
 34 74  1  0
 35 75  1  0
 35 76  1  0
 36 77  1  0
 36 78  1  0
 37 79  1  0
 37 80  1  0
 38 81  1  0
 38 82  1  0
 38 83  1  0
 42 84  1  0
 43 85  1  0
M  END
