
     RDKit          3D

 44 48  0  0  0  0  0  0  0  0999 V2000
   -4.2765   -2.9492    0.7272 C   0  0  0  0  0  0  0  0  0  0  0  0
   -3.6916   -2.3605   -0.5340 C   0  0  0  0  0  0  0  0  0  0  0  0
   -2.6290   -1.5115   -0.2073 O   0  0  0  0  0  0  0  0  0  0  0  0
   -1.8600   -0.8029   -1.0877 C   0  0  0  0  0  0  0  0  0  0  0  0
   -2.1193   -0.9127   -2.3245 O   0  0  0  0  0  0  0  0  0  0  0  0
   -0.7912    0.0355   -0.5732 C   0  0  0  0  0  0  0  0  0  0  0  0
   -1.0279    1.3402   -0.2516 C   0  0  0  0  0  0  0  0  0  0  0  0
   -0.0529    2.1201    0.2222 C   0  0  0  0  0  0  0  0  0  0  0  0
   -0.4728    3.3937    0.4884 C   0  0  0  0  0  0  0  0  0  0  0  0
    0.4897    4.2449    0.9799 C   0  0  0  0  0  0  0  0  0  0  0  0
    1.7826    3.8454    1.1892 C   0  0  0  0  0  0  0  0  0  0  0  0
    2.2006    2.5323    0.9109 C   0  0  0  0  0  0  0  0  0  0  0  0
    3.8378    2.0796    1.1914 Cl  0  0  0  0  0  0  0  0  0  0  0  0
    1.2622    1.6741    0.4235 C   0  0  0  0  0  0  0  0  0  0  0  0
    1.5402    0.3619    0.1101 C   0  0  0  0  0  0  0  0  0  0  0  0
    2.7954   -0.1272    0.2837 C   0  0  0  0  0  0  0  0  0  0  0  0
    3.0307   -1.4657   -0.0481 C   0  0  0  0  0  0  0  0  0  0  0  0
    4.2745   -2.0392    0.0980 C   0  0  0  0  0  0  0  0  0  0  0  0
    4.5322   -3.3626   -0.2238 C   0  0  0  0  0  0  0  0  0  0  0  0
    3.5209   -4.1414   -0.7064 C   0  0  0  0  0  0  0  0  0  0  0  0
    2.2574   -3.5787   -0.8606 C   0  0  0  0  0  0  0  0  0  0  0  0
    2.0161   -2.2556   -0.5348 C   0  0  0  0  0  0  0  0  0  0  0  0
    0.7566   -1.7308   -0.6990 C   0  0  0  0  0  0  0  0  0  0  0  0
    0.4962   -0.4217   -0.3821 C   0  0  0  0  0  0  0  0  0  0  0  0
   -1.8504    3.4708    0.1635 N   0  0  0  0  0  0  0  0  0  0  0  0
   -2.6873    4.6267    0.2903 C   0  0  0  0  0  0  0  0  0  0  0  0
   -2.2355    2.1861   -0.3090 C   0  0  0  0  0  0  0  0  0  0  0  0
   -3.3310    1.7554   -0.7111 O   0  0  0  0  0  0  0  0  0  0  0  0
   -4.3717   -4.0473    0.6282 H   0  0  0  0  0  0  0  0  0  0  0  0
   -5.2455   -2.4648    0.9917 H   0  0  0  0  0  0  0  0  0  0  0  0
   -3.5982   -2.7199    1.5921 H   0  0  0  0  0  0  0  0  0  0  0  0
   -4.4845   -1.7296   -1.0004 H   0  0  0  0  0  0  0  0  0  0  0  0
   -3.4183   -3.1373   -1.2759 H   0  0  0  0  0  0  0  0  0  0  0  0
    0.1726    5.2546    1.1950 H   0  0  0  0  0  0  0  0  0  0  0  0
    2.5446    4.5335    1.5824 H   0  0  0  0  0  0  0  0  0  0  0  0
    3.6235    0.3847    0.6422 H   0  0  0  0  0  0  0  0  0  0  0  0
    5.0835   -1.4357    0.4784 H   0  0  0  0  0  0  0  0  0  0  0  0
    5.5399   -3.7659   -0.0875 H   0  0  0  0  0  0  0  0  0  0  0  0
    3.7446   -5.1648   -0.9491 H   0  0  0  0  0  0  0  0  0  0  0  0
    1.4949   -4.2159   -1.2391 H   0  0  0  0  0  0  0  0  0  0  0  0
   -0.0415   -2.3525   -1.0820 H   0  0  0  0  0  0  0  0  0  0  0  0
   -3.1789    4.6523    1.2843 H   0  0  0  0  0  0  0  0  0  0  0  0
   -3.5143    4.6301   -0.4790 H   0  0  0  0  0  0  0  0  0  0  0  0
   -2.1183    5.5716    0.0936 H   0  0  0  0  0  0  0  0  0  0  0  0
  1  2  1  0
  2  3  1  0
  3  4  1  0
  4  5  2  0
  4  6  1  0
  6  7  2  0
  7  8  1  0
  8  9  2  0
  9 10  1  0
 10 11  2  0
 11 12  1  0
 12 13  1  0
 12 14  2  0
 14 15  1  0
 15 16  2  0
 16 17  1  0
 17 18  2  0
 18 19  1  0
 19 20  2  0
 20 21  1  0
 21 22  2  0
 22 23  1  0
 23 24  2  0
  9 25  1  0
 25 26  1  0
 25 27  1  0
 27 28  2  0
 24  6  1  0
 27  7  1  0
 14  8  1  0
 24 15  1  0
 22 17  1  0
  1 29  1  0
  1 30  1  0
  1 31  1  0
  2 32  1  0
  2 33  1  0
 10 34  1  0
 11 35  1  0
 16 36  1  0
 18 37  1  0
 19 38  1  0
 20 39  1  0
 21 40  1  0
 23 41  1  0
 26 42  1  0
 26 43  1  0
 26 44  1  0
M  END
