
     RDKit          3D

 83 90  0  0  0  0  0  0  0  0999 V2000
   -4.9141   -0.1818    2.8492 C   0  0  0  0  0  0  0  0  0  0  0  0
   -3.6700   -0.5361    2.1133 C   0  0  0  0  0  0  0  0  0  0  0  0
   -2.1495    0.1386    2.3798 S   0  0  0  0  0  0  0  0  0  0  0  0
   -1.2327   -0.7579    1.1910 C   0  0  0  0  0  0  0  0  0  0  0  0
    0.2008   -0.5595    0.9694 C   0  0  0  0  0  0  0  0  0  0  0  0
    1.0167   -1.3884    0.2768 C   0  0  0  0  0  0  0  0  0  0  0  0
    2.3634   -1.1209    0.0499 C   0  0  0  0  0  0  0  0  0  0  0  0
    2.9186    0.0327    0.5429 C   0  0  0  0  0  0  0  0  0  0  0  0
    4.3316    0.3338    0.3114 C   0  0  0  0  0  0  0  0  0  0  0  0
    5.0201    1.4053    0.7255 N   0  0  0  0  0  0  0  0  0  0  0  0
    6.2877    1.3445    0.3287 C   0  0  0  0  0  0  0  0  0  0  0  0
    7.3242    2.3306    0.5957 C   0  0  0  0  0  0  0  0  0  0  0  0
    7.9393    3.0064   -0.4320 C   0  0  0  0  0  0  0  0  0  0  0  0
    8.9313    3.9502   -0.1686 C   0  0  0  0  0  0  0  0  0  0  0  0
    9.3048    4.2145    1.1311 C   0  0  0  0  0  0  0  0  0  0  0  0
    8.7011    3.5479    2.1820 C   0  0  0  0  0  0  0  0  0  0  0  0
    7.7292    2.6260    1.8867 C   0  0  0  0  0  0  0  0  0  0  0  0
    6.4170    0.1719   -0.3768 C   0  0  0  0  0  0  0  0  0  0  0  0
    7.6058   -0.3641   -1.0241 C   0  0  0  0  0  0  0  0  0  0  0  0
    8.7187   -0.6980   -0.2900 C   0  0  0  0  0  0  0  0  0  0  0  0
    9.8555   -1.2075   -0.8890 C   0  0  0  0  0  0  0  0  0  0  0  0
    9.8918   -1.3917   -2.2537 C   0  0  0  0  0  0  0  0  0  0  0  0
    8.7891   -1.0638   -3.0052 C   0  0  0  0  0  0  0  0  0  0  0  0
    7.6509   -0.5530   -2.4001 C   0  0  0  0  0  0  0  0  0  0  0  0
    5.2121   -0.4183   -0.3688 N   0  0  0  0  0  0  0  0  0  0  0  0
    2.1259    0.9093    1.2583 C   0  0  0  0  0  0  0  0  0  0  0  0
    0.8040    0.6152    1.4622 C   0  0  0  0  0  0  0  0  0  0  0  0
   -2.1910   -1.5484    0.6375 C   0  0  0  0  0  0  0  0  0  0  0  0
   -1.8184   -2.4237   -0.5557 C   0  0  0  0  0  0  0  0  0  0  0  0
   -3.4522   -1.4480    1.1053 C   0  0  0  0  0  0  0  0  0  0  0  0
   -4.5961   -2.2887    0.5745 C   0  0  0  0  0  0  0  0  0  0  0  0
   -5.7316   -1.8281    0.0971 C   0  0  0  0  0  0  0  0  0  0  0  0
   -6.1433   -0.4425   -0.0316 C   0  0  0  0  0  0  0  0  0  0  0  0
   -7.3046    0.1010    0.4885 C   0  0  0  0  0  0  0  0  0  0  0  0
   -8.3324   -0.5742    1.3171 C   0  0  0  0  0  0  0  0  0  0  0  0
   -7.3086    1.3899    0.1042 N   0  0  0  0  0  0  0  0  0  0  0  0
   -8.3601    2.3300    0.4407 C   0  0  0  0  0  0  0  0  0  0  0  0
   -6.2206    1.6861   -0.6245 C   0  0  0  0  0  0  0  0  0  0  0  0
   -5.7716    2.8461   -1.2431 C   0  0  0  0  0  0  0  0  0  0  0  0
   -4.5922    2.8649   -1.9499 C   0  0  0  0  0  0  0  0  0  0  0  0
   -3.8315    1.7239   -2.0568 C   0  0  0  0  0  0  0  0  0  0  0  0
   -4.2569    0.5624   -1.4517 C   0  0  0  0  0  0  0  0  0  0  0  0
   -5.4470    0.5498   -0.7391 C   0  0  0  0  0  0  0  0  0  0  0  0
   -6.5508   -3.0098   -0.3260 C   0  0  0  0  0  0  0  0  0  0  0  0
   -7.8839   -2.8729   -0.1531 F   0  0  0  0  0  0  0  0  0  0  0  0
   -6.1776   -3.4695   -1.5646 F   0  0  0  0  0  0  0  0  0  0  0  0
   -6.0850   -4.0930    0.6578 C   0  0  0  0  0  0  0  0  0  0  0  0
   -6.6171   -3.9584    1.8984 F   0  0  0  0  0  0  0  0  0  0  0  0
   -6.2750   -5.3550    0.1973 F   0  0  0  0  0  0  0  0  0  0  0  0
   -4.6040   -3.7620    0.6288 C   0  0  0  0  0  0  0  0  0  0  0  0
   -3.9500   -4.4317   -0.3413 F   0  0  0  0  0  0  0  0  0  0  0  0
   -4.1486   -4.0997    1.9084 F   0  0  0  0  0  0  0  0  0  0  0  0
   -4.7084    0.0192    3.9252 H   0  0  0  0  0  0  0  0  0  0  0  0
   -5.6761   -0.9932    2.7672 H   0  0  0  0  0  0  0  0  0  0  0  0
   -5.2693    0.7850    2.4379 H   0  0  0  0  0  0  0  0  0  0  0  0
    0.6672   -2.3198   -0.1016 H   0  0  0  0  0  0  0  0  0  0  0  0
    2.9776   -1.8034   -0.5060 H   0  0  0  0  0  0  0  0  0  0  0  0
    7.6379    2.7897   -1.4348 H   0  0  0  0  0  0  0  0  0  0  0  0
    9.3704    4.4409   -1.0132 H   0  0  0  0  0  0  0  0  0  0  0  0
   10.0721    4.9424    1.3565 H   0  0  0  0  0  0  0  0  0  0  0  0
    9.0011    3.7617    3.2100 H   0  0  0  0  0  0  0  0  0  0  0  0
    7.2542    2.1029    2.6959 H   0  0  0  0  0  0  0  0  0  0  0  0
    8.7177   -0.5650    0.7753 H   0  0  0  0  0  0  0  0  0  0  0  0
   10.7127   -1.4600   -0.2843 H   0  0  0  0  0  0  0  0  0  0  0  0
   10.7704   -1.7851   -2.7127 H   0  0  0  0  0  0  0  0  0  0  0  0
    8.8437   -1.2188   -4.0795 H   0  0  0  0  0  0  0  0  0  0  0  0
    6.7997   -0.3026   -3.0031 H   0  0  0  0  0  0  0  0  0  0  0  0
    5.0146   -1.3373   -0.8365 H   0  0  0  0  0  0  0  0  0  0  0  0
    2.5924    1.8156    1.6383 H   0  0  0  0  0  0  0  0  0  0  0  0
    0.1726    1.2891    2.0182 H   0  0  0  0  0  0  0  0  0  0  0  0
   -1.1064   -1.8648   -1.2309 H   0  0  0  0  0  0  0  0  0  0  0  0
   -1.4095   -3.3689   -0.2911 H   0  0  0  0  0  0  0  0  0  0  0  0
   -2.7379   -2.4606   -1.2321 H   0  0  0  0  0  0  0  0  0  0  0  0
   -8.6909    0.2452    2.0303 H   0  0  0  0  0  0  0  0  0  0  0  0
   -7.9608   -1.3300    2.0029 H   0  0  0  0  0  0  0  0  0  0  0  0
   -9.2698   -0.8121    0.7762 H   0  0  0  0  0  0  0  0  0  0  0  0
   -9.3264    2.0073   -0.0297 H   0  0  0  0  0  0  0  0  0  0  0  0
   -8.5374    2.3562    1.5315 H   0  0  0  0  0  0  0  0  0  0  0  0
   -8.0963    3.3612    0.1355 H   0  0  0  0  0  0  0  0  0  0  0  0
   -6.4148    3.7209   -1.1259 H   0  0  0  0  0  0  0  0  0  0  0  0
   -4.2901    3.7936   -2.4105 H   0  0  0  0  0  0  0  0  0  0  0  0
   -2.9068    1.7160   -2.6048 H   0  0  0  0  0  0  0  0  0  0  0  0
   -3.7265   -0.3597   -1.5014 H   0  0  0  0  0  0  0  0  0  0  0  0
  1  2  1  0
  2  3  1  0
  3  4  1  0
  4  5  1  0
  5  6  2  0
  6  7  1  0
  7  8  2  0
  8  9  1  0
  9 10  2  0
 10 11  1  0
 11 12  1  0
 12 13  2  0
 13 14  1  0
 14 15  2  0
 15 16  1  0
 16 17  2  0
 11 18  2  0
 18 19  1  0
 19 20  2  0
 20 21  1  0
 21 22  2  0
 22 23  1  0
 23 24  2  0
 18 25  1  0
  8 26  1  0
 26 27  2  0
  4 28  2  0
 28 29  1  0
 28 30  1  0
 30 31  1  0
 31 32  2  0
 32 33  1  0
 33 34  2  0
 34 35  1  0
 34 36  1  0
 36 37  1  0
 36 38  1  0
 38 39  2  0
 39 40  1  0
 40 41  2  0
 41 42  1  0
 42 43  2  0
 32 44  1  0
 44 45  1  0
 44 46  1  0
 44 47  1  0
 47 48  1  0
 47 49  1  0
 47 50  1  0
 50 51  1  0
 50 52  1  0
 30  2  2  0
 50 31  1  0
 27  5  1  0
 43 33  1  0
 25  9  1  0
 43 38  1  0
 17 12  1  0
 24 19  1  0
  1 53  1  0
  1 54  1  0
  1 55  1  0
  6 56  1  0
  7 57  1  0
 13 58  1  0
 14 59  1  0
 15 60  1  0
 16 61  1  0
 17 62  1  0
 20 63  1  0
 21 64  1  0
 22 65  1  0
 23 66  1  0
 24 67  1  0
 25 68  1  0
 26 69  1  0
 27 70  1  0
 29 71  1  0
 29 72  1  0
 29 73  1  0
 35 74  1  0
 35 75  1  0
 35 76  1  0
 37 77  1  0
 37 78  1  0
 37 79  1  0
 39 80  1  0
 40 81  1  0
 41 82  1  0
 42 83  1  0
M  END
