
     RDKit          3D

 66 72  0  0  0  0  0  0  0  0999 V2000
   -9.3224    1.9878    0.3602 C   0  0  0  0  0  0  0  0  0  0  0  0
   -9.6614    1.0210   -0.7998 C   0  0  0  0  0  0  0  0  0  0  0  0
   -8.8046   -0.1412   -0.7522 N   0  0  0  0  0  0  0  0  0  0  0  0
   -9.0111   -1.3390   -0.2194 C   0  0  0  0  0  0  0  0  0  0  0  0
  -10.1549   -1.8694    0.3441 C   0  0  0  0  0  0  0  0  0  0  0  0
  -10.0628   -3.1566    0.8221 C   0  0  0  0  0  0  0  0  0  0  0  0
   -8.9046   -3.8754    0.7478 C   0  0  0  0  0  0  0  0  0  0  0  0
   -7.7572   -3.3506    0.1798 C   0  0  0  0  0  0  0  0  0  0  0  0
   -7.8416   -2.0417   -0.3033 C   0  0  0  0  0  0  0  0  0  0  0  0
   -6.8880   -1.2898   -0.8972 C   0  0  0  0  0  0  0  0  0  0  0  0
   -5.5377   -1.3531   -1.2025 C   0  0  0  0  0  0  0  0  0  0  0  0
   -4.8322   -0.3726   -1.7479 C   0  0  0  0  0  0  0  0  0  0  0  0
   -3.5129   -0.3567   -1.9143 C   0  0  0  0  0  0  0  0  0  0  0  0
   -2.1600   -0.3494   -2.1071 C   0  0  0  0  0  0  0  0  0  0  0  0
   -0.7680   -0.3272   -2.3252 C   0  0  0  0  0  0  0  0  0  0  0  0
    0.1059    0.4356   -1.7195 C   0  0  0  0  0  0  0  0  0  0  0  0
    1.4038   -0.2562   -1.8101 C   0  0  0  0  0  0  0  0  0  0  0  0
    2.5730    0.0659   -1.4057 C   0  0  0  0  0  0  0  0  0  0  0  0
    3.7996    0.3963   -0.9712 C   0  0  0  0  0  0  0  0  0  0  0  0
    5.1054    0.7453   -0.5199 C   0  0  0  0  0  0  0  0  0  0  0  0
    5.9985    1.4025   -1.3423 C   0  0  0  0  0  0  0  0  0  0  0  0
    7.2436    1.6829   -0.6369 C   0  0  0  0  0  0  0  0  0  0  0  0
    7.4708    1.3614    0.5350 C   0  0  0  0  0  0  0  0  0  0  0  0
    6.5835    0.6571    1.4860 C   0  0  0  0  0  0  0  0  0  0  0  0
    5.3735    0.4131    0.7464 C   0  0  0  0  0  0  0  0  0  0  0  0
    7.1335    0.5122    2.5724 C   0  0  0  0  0  0  0  0  0  0  0  0
    6.7710   -0.1213    3.8180 C   0  0  0  0  0  0  0  0  0  0  0  0
    7.6133   -0.1124    4.7490 C   0  0  0  0  0  0  0  0  0  0  0  0
    8.9150    0.3790    4.9048 C   0  0  0  0  0  0  0  0  0  0  0  0
    9.2687    1.0237    3.6299 C   0  0  0  0  0  0  0  0  0  0  0  0
    8.4453    1.0534    2.6232 C   0  0  0  0  0  0  0  0  0  0  0  0
    8.5802    1.5479    1.3150 N   0  0  0  0  0  0  0  0  0  0  0  0
    9.7781    2.0937    0.7617 C   0  0  0  0  0  0  0  0  0  0  0  0
   10.5103    0.8955    0.0738 C   0  0  0  0  0  0  0  0  0  0  0  0
    1.4636   -1.4561   -2.4975 N   0  0  0  0  0  0  0  0  0  0  0  0
    0.5609   -2.1621   -3.1110 C   0  0  0  0  0  0  0  0  0  0  0  0
   -0.6080   -1.5537   -3.0067 N   0  0  0  0  0  0  0  0  0  0  0  0
   -5.5256    0.8584   -2.0437 C   0  0  0  0  0  0  0  0  0  0  0  0
   -6.8448    0.9888   -1.7620 C   0  0  0  0  0  0  0  0  0  0  0  0
   -7.5153   -0.0475   -1.1974 C   0  0  0  0  0  0  0  0  0  0  0  0
   -8.8196    1.3173    1.1197 H   0  0  0  0  0  0  0  0  0  0  0  0
   -8.5900    2.7169    0.0335 H   0  0  0  0  0  0  0  0  0  0  0  0
  -10.2383    2.3651    0.8019 H   0  0  0  0  0  0  0  0  0  0  0  0
   -9.5302    1.5990   -1.7283 H   0  0  0  0  0  0  0  0  0  0  0  0
  -10.7333    0.7167   -0.6253 H   0  0  0  0  0  0  0  0  0  0  0  0
  -11.0566   -1.2481    0.3990 H   0  0  0  0  0  0  0  0  0  0  0  0
  -10.9538   -3.5990    1.2940 H   0  0  0  0  0  0  0  0  0  0  0  0
   -8.9252   -4.9022    1.1840 H   0  0  0  0  0  0  0  0  0  0  0  0
   -6.8625   -3.9223    0.1050 H   0  0  0  0  0  0  0  0  0  0  0  0
   -5.0246   -2.3182   -0.9706 H   0  0  0  0  0  0  0  0  0  0  0  0
    0.0814    1.3236   -1.3027 H   0  0  0  0  0  0  0  0  0  0  0  0
    5.8011    1.6281   -2.3452 H   0  0  0  0  0  0  0  0  0  0  0  0
    7.9152    2.2238   -1.3359 H   0  0  0  0  0  0  0  0  0  0  0  0
    4.6582   -0.1793    1.3267 H   0  0  0  0  0  0  0  0  0  0  0  0
    5.7730   -0.5541    3.7799 H   0  0  0  0  0  0  0  0  0  0  0  0
    7.3159   -0.6301    5.7779 H   0  0  0  0  0  0  0  0  0  0  0  0
    9.5492    0.3394    5.7131 H   0  0  0  0  0  0  0  0  0  0  0  0
   10.3020    1.4359    3.6655 H   0  0  0  0  0  0  0  0  0  0  0  0
    9.5278    2.8293   -0.0678 H   0  0  0  0  0  0  0  0  0  0  0  0
   10.4621    2.5759    1.4609 H   0  0  0  0  0  0  0  0  0  0  0  0
   11.1621    0.4360    0.8230 H   0  0  0  0  0  0  0  0  0  0  0  0
   11.1045    1.2379   -0.7681 H   0  0  0  0  0  0  0  0  0  0  0  0
    9.7383    0.1492   -0.2103 H   0  0  0  0  0  0  0  0  0  0  0  0
    0.6884   -3.0828   -3.6204 H   0  0  0  0  0  0  0  0  0  0  0  0
   -4.9623    1.6270   -2.5192 H   0  0  0  0  0  0  0  0  0  0  0  0
   -7.3674    1.9256   -2.0178 H   0  0  0  0  0  0  0  0  0  0  0  0
  1  2  1  0
  2  3  1  0
  3  4  1  0
  4  5  2  0
  5  6  1  0
  6  7  2  0
  7  8  1  0
  8  9  2  0
  9 10  1  0
 10 11  2  0
 11 12  1  0
 12 13  1  0
 13 14  3  0
 14 15  1  0
 15 16  2  0
 16 17  1  0
 17 18  1  0
 18 19  3  0
 19 20  1  0
 20 21  2  0
 21 22  1  0
 22 23  2  0
 23 24  1  0
 24 25  2  0
 24 26  1  0
 26 27  2  0
 27 28  1  0
 28 29  2  0
 29 30  1  0
 30 31  2  0
 31 32  1  0
 32 33  1  0
 33 34  1  0
 17 35  2  0
 35 36  1  0
 36 37  2  0
 12 38  2  0
 38 39  1  0
 39 40  2  0
 40  3  1  0
  9  4  1  0
 40 10  1  0
 37 15  1  0
 25 20  1  0
 31 26  1  0
 32 23  1  0
  1 41  1  0
  1 42  1  0
  1 43  1  0
  2 44  1  0
  2 45  1  0
  5 46  1  0
  6 47  1  0
  7 48  1  0
  8 49  1  0
 11 50  1  0
 16 51  1  0
 21 52  1  0
 22 53  1  0
 25 54  1  0
 27 55  1  0
 28 56  1  0
 29 57  1  0
 30 58  1  0
 33 59  1  0
 33 60  1  0
 34 61  1  0
 34 62  1  0
 34 63  1  0
 36 64  1  0
 38 65  1  0
 39 66  1  0
M  END
