
     RDKit          3D

 46 48  0  0  0  0  0  0  0  0999 V2000
   -6.1409   -2.7520    0.3275 C   0  0  0  0  0  0  0  0  0  0  0  0
   -4.8003   -3.1700    0.2797 O   0  0  0  0  0  0  0  0  0  0  0  0
   -3.7282   -2.3014    0.2595 C   0  0  0  0  0  0  0  0  0  0  0  0
   -2.4459   -2.8005    0.2119 C   0  0  0  0  0  0  0  0  0  0  0  0
   -1.3590   -1.9216    0.1917 C   0  0  0  0  0  0  0  0  0  0  0  0
   -1.5056   -0.5507    0.2179 C   0  0  0  0  0  0  0  0  0  0  0  0
   -2.8121   -0.0959    0.2650 C   0  0  0  0  0  0  0  0  0  0  0  0
   -3.9127   -0.9425    0.2862 C   0  0  0  0  0  0  0  0  0  0  0  0
   -3.0650    1.2540    0.2854 C   0  0  0  0  0  0  0  0  0  0  0  0
   -4.2316    1.7100    0.3283 O   0  0  0  0  0  0  0  0  0  0  0  0
   -2.0065    2.1579    0.2582 C   0  0  0  0  0  0  0  0  0  0  0  0
   -2.2855    3.5056    0.2726 C   0  0  0  0  0  0  0  0  0  0  0  0
   -1.2551    4.4072    0.2389 C   0  0  0  0  0  0  0  0  0  0  0  0
    0.0332    3.9261    0.1912 C   0  0  0  0  0  0  0  0  0  0  0  0
    0.2921    2.5593    0.1774 C   0  0  0  0  0  0  0  0  0  0  0  0
   -0.7358    1.6326    0.2118 C   0  0  0  0  0  0  0  0  0  0  0  0
   -0.4495    0.3115    0.1918 N   0  0  0  0  0  0  0  0  0  0  0  0
    0.8817   -0.2101    0.1604 C   0  0  0  0  0  0  0  0  0  0  0  0
    1.4318   -0.4324   -1.2027 C   0  0  0  0  0  0  0  0  0  0  0  0
    2.8326   -0.9905   -1.1406 C   0  0  0  0  0  0  0  0  0  0  0  0
    3.8185   -0.1161   -0.4427 C   0  0  0  0  0  0  0  0  0  0  0  0
    5.1702   -0.8428   -0.4875 C   0  0  0  0  0  0  0  0  0  0  0  0
    6.2283   -0.0678    0.1770 C   0  0  0  0  0  0  0  0  0  0  0  0
    6.7309    0.9457   -0.3734 O   0  0  0  0  0  0  0  0  0  0  0  0
    6.7395   -0.3974    1.4428 O   0  0  0  0  0  0  0  0  0  0  0  0
   -6.3938   -2.2025    1.2595 H   0  0  0  0  0  0  0  0  0  0  0  0
   -6.4001   -2.1659   -0.5783 H   0  0  0  0  0  0  0  0  0  0  0  0
   -6.7902   -3.6532    0.3094 H   0  0  0  0  0  0  0  0  0  0  0  0
   -2.2737   -3.8681    0.1905 H   0  0  0  0  0  0  0  0  0  0  0  0
   -0.3925   -2.3522    0.1466 H   0  0  0  0  0  0  0  0  0  0  0  0
   -4.9268   -0.5676    0.3237 H   0  0  0  0  0  0  0  0  0  0  0  0
   -3.2938    3.8683    0.3098 H   0  0  0  0  0  0  0  0  0  0  0  0
   -1.4440    5.4928    0.2486 H   0  0  0  0  0  0  0  0  0  0  0  0
    0.8470    4.6388    0.1646 H   0  0  0  0  0  0  0  0  0  0  0  0
    1.3015    2.2366    0.1324 H   0  0  0  0  0  0  0  0  0  0  0  0
    0.9699   -1.1675    0.7540 H   0  0  0  0  0  0  0  0  0  0  0  0
    1.6365    0.4384    0.7065 H   0  0  0  0  0  0  0  0  0  0  0  0
    1.4975    0.4994   -1.8109 H   0  0  0  0  0  0  0  0  0  0  0  0
    0.8232   -1.1346   -1.8179 H   0  0  0  0  0  0  0  0  0  0  0  0
    2.8290   -1.9735   -0.6292 H   0  0  0  0  0  0  0  0  0  0  0  0
    3.2079   -1.1688   -2.1858 H   0  0  0  0  0  0  0  0  0  0  0  0
    3.9615    0.8753   -0.8949 H   0  0  0  0  0  0  0  0  0  0  0  0
    3.5932   -0.0632    0.6618 H   0  0  0  0  0  0  0  0  0  0  0  0
    5.4409   -0.9796   -1.5519 H   0  0  0  0  0  0  0  0  0  0  0  0
    5.0968   -1.8511   -0.0275 H   0  0  0  0  0  0  0  0  0  0  0  0
    7.2847    0.2795    1.9608 H   0  0  0  0  0  0  0  0  0  0  0  0
  1  2  1  0
  2  3  1  0
  3  4  2  0
  4  5  1  0
  5  6  2  0
  6  7  1  0
  7  8  2  0
  7  9  1  0
  9 10  2  0
  9 11  1  0
 11 12  2  0
 12 13  1  0
 13 14  2  0
 14 15  1  0
 15 16  2  0
 16 17  1  0
 17 18  1  0
 18 19  1  0
 19 20  1  0
 20 21  1  0
 21 22  1  0
 22 23  1  0
 23 24  2  0
 23 25  1  0
  8  3  1  0
 16 11  1  0
 17  6  1  0
  1 26  1  0
  1 27  1  0
  1 28  1  0
  4 29  1  0
  5 30  1  0
  8 31  1  0
 12 32  1  0
 13 33  1  0
 14 34  1  0
 15 35  1  0
 18 36  1  0
 18 37  1  0
 19 38  1  0
 19 39  1  0
 20 40  1  0
 20 41  1  0
 21 42  1  0
 21 43  1  0
 22 44  1  0
 22 45  1  0
 25 46  1  0
M  END
