
     RDKit          3D

 54 57  0  0  0  0  0  0  0  0999 V2000
   -5.3143   -2.7439    0.8185 C   0  0  0  0  0  0  0  0  0  0  0  0
   -4.9024   -1.8914   -0.3633 C   0  0  0  0  0  0  0  0  0  0  0  0
   -3.7824   -1.1449    0.0157 O   0  0  0  0  0  0  0  0  0  0  0  0
   -3.1757   -0.2699   -0.8550 C   0  0  0  0  0  0  0  0  0  0  0  0
   -3.6311   -0.1334   -2.0150 O   0  0  0  0  0  0  0  0  0  0  0  0
   -1.9834    0.5170   -0.4340 C   0  0  0  0  0  0  0  0  0  0  0  0
   -2.1662    1.7431    0.1365 C   0  0  0  0  0  0  0  0  0  0  0  0
   -3.3579    2.4492    0.4195 N   0  0  0  0  0  0  0  0  0  0  0  0
   -3.5617    3.6764    0.1937 C   0  0  0  0  0  0  0  0  0  0  0  0
   -4.8688    4.2395    0.5564 C   0  0  0  0  0  0  0  0  0  0  0  0
   -5.9367    3.6013    1.1251 C   0  0  0  0  0  0  0  0  0  0  0  0
   -7.0328    4.3252    1.3670 C   0  0  0  0  0  0  0  0  0  0  0  0
   -7.0022    5.6533    1.0260 C   0  0  0  0  0  0  0  0  0  0  0  0
   -5.4349    5.8370    0.3781 S   0  0  0  0  0  0  0  0  0  0  0  0
   -0.5830    2.2674    0.4500 S   0  0  0  0  0  0  0  0  0  0  0  0
    0.2820    0.9090   -0.1543 C   0  0  0  0  0  0  0  0  0  0  0  0
    1.7094    0.6896   -0.1979 N   0  0  0  0  0  0  0  0  0  0  0  0
    2.4181    0.6876    0.8733 C   0  0  0  0  0  0  0  0  0  0  0  0
    3.8690    0.4657    0.8402 C   0  0  0  0  0  0  0  0  0  0  0  0
    4.7568    0.4336    1.8802 C   0  0  0  0  0  0  0  0  0  0  0  0
    6.0405    0.2112    1.5848 C   0  0  0  0  0  0  0  0  0  0  0  0
    6.3675    0.0332    0.2683 C   0  0  0  0  0  0  0  0  0  0  0  0
    7.6953   -0.2243   -0.3186 C   0  0  0  0  0  0  0  0  0  0  0  0
    8.9106   -0.3487    0.2818 C   0  0  0  0  0  0  0  0  0  0  0  0
    9.9633   -0.5847   -0.5083 C   0  0  0  0  0  0  0  0  0  0  0  0
    9.7368   -0.6825   -1.8578 C   0  0  0  0  0  0  0  0  0  0  0  0
    8.0484   -0.4388   -1.9675 S   0  0  0  0  0  0  0  0  0  0  0  0
    4.8583    0.1837   -0.5187 S   0  0  0  0  0  0  0  0  0  0  0  0
   -0.7246    0.0860   -0.5845 C   0  0  0  0  0  0  0  0  0  0  0  0
   -0.3602   -1.2269   -1.1883 C   0  0  0  0  0  0  0  0  0  0  0  0
   -0.1572   -1.3617   -2.4169 O   0  0  0  0  0  0  0  0  0  0  0  0
   -0.2500   -2.3038   -0.3546 O   0  0  0  0  0  0  0  0  0  0  0  0
    0.0872   -3.6101   -0.7771 C   0  0  0  0  0  0  0  0  0  0  0  0
   -0.8939   -4.1646   -1.7687 C   0  0  0  0  0  0  0  0  0  0  0  0
   -5.5570   -3.7642    0.4533 H   0  0  0  0  0  0  0  0  0  0  0  0
   -4.5055   -2.8056    1.5516 H   0  0  0  0  0  0  0  0  0  0  0  0
   -6.2058   -2.3412    1.3388 H   0  0  0  0  0  0  0  0  0  0  0  0
   -4.6781   -2.5514   -1.2453 H   0  0  0  0  0  0  0  0  0  0  0  0
   -5.7562   -1.2465   -0.6563 H   0  0  0  0  0  0  0  0  0  0  0  0
   -2.7858    4.2595   -0.2491 H   0  0  0  0  0  0  0  0  0  0  0  0
   -5.8659    2.5138    1.3674 H   0  0  0  0  0  0  0  0  0  0  0  0
   -7.9550    3.8988    1.8271 H   0  0  0  0  0  0  0  0  0  0  0  0
   -7.8159    6.3924    1.1556 H   0  0  0  0  0  0  0  0  0  0  0  0
    1.9538    0.8512    1.8311 H   0  0  0  0  0  0  0  0  0  0  0  0
    4.3722    0.5927    2.9149 H   0  0  0  0  0  0  0  0  0  0  0  0
    6.8356    0.1675    2.3629 H   0  0  0  0  0  0  0  0  0  0  0  0
    8.9844   -0.2516    1.3890 H   0  0  0  0  0  0  0  0  0  0  0  0
   10.9981   -0.7017   -0.1107 H   0  0  0  0  0  0  0  0  0  0  0  0
   10.4888   -0.8729   -2.6458 H   0  0  0  0  0  0  0  0  0  0  0  0
    1.0987   -3.6437   -1.2585 H   0  0  0  0  0  0  0  0  0  0  0  0
    0.1289   -4.2869    0.1008 H   0  0  0  0  0  0  0  0  0  0  0  0
   -0.9396   -5.2818   -1.6191 H   0  0  0  0  0  0  0  0  0  0  0  0
   -1.9168   -3.7758   -1.6431 H   0  0  0  0  0  0  0  0  0  0  0  0
   -0.5029   -4.0318   -2.7989 H   0  0  0  0  0  0  0  0  0  0  0  0
  1  2  1  0
  2  3  1  0
  3  4  1  0
  4  5  2  0
  4  6  1  0
  6  7  2  0
  7  8  1  0
  8  9  2  0
  9 10  1  0
 10 11  2  0
 11 12  1  0
 12 13  2  0
 13 14  1  0
  7 15  1  0
 15 16  1  0
 16 17  1  0
 17 18  2  0
 18 19  1  0
 19 20  2  0
 20 21  1  0
 21 22  2  0
 22 23  1  0
 23 24  2  0
 24 25  1  0
 25 26  2  0
 26 27  1  0
 22 28  1  0
 16 29  2  0
 29 30  1  0
 30 31  2  0
 30 32  1  0
 32 33  1  0
 33 34  1  0
 29  6  1  0
 14 10  1  0
 28 19  1  0
 27 23  1  0
  1 35  1  0
  1 36  1  0
  1 37  1  0
  2 38  1  0
  2 39  1  0
  9 40  1  0
 11 41  1  0
 12 42  1  0
 13 43  1  0
 18 44  1  0
 20 45  1  0
 21 46  1  0
 24 47  1  0
 25 48  1  0
 26 49  1  0
 33 50  1  0
 33 51  1  0
 34 52  1  0
 34 53  1  0
 34 54  1  0
M  END
