
     RDKit          3D

 88 96  0  0  0  0  0  0  0  0999 V2000
   -0.3424    3.3274   -2.2773 C   0  0  0  0  0  0  0  0  0  0  0  0
    1.1087    3.3454   -1.9811 C   0  0  0  0  0  0  0  0  0  0  0  0
    1.6685    3.8700   -0.7619 C   0  0  0  0  0  0  0  0  0  0  0  0
    1.3460    3.2690    0.6025 C   0  0  0  0  0  0  0  0  0  0  0  0
    1.5325    1.8636    0.5699 N   0  0  0  0  0  0  0  0  0  0  0  0
    2.8379    1.3766    0.4491 C   0  0  0  0  0  0  0  0  0  0  0  0
    4.0555    1.9689    0.5659 C   0  0  0  0  0  0  0  0  0  0  0  0
    5.2168    1.2457    0.4085 C   0  0  0  0  0  0  0  0  0  0  0  0
    5.1779   -0.1054    0.1273 C   0  0  0  0  0  0  0  0  0  0  0  0
    6.3998   -0.8830   -0.0423 C   0  0  0  0  0  0  0  0  0  0  0  0
    7.5270   -0.3037   -0.5667 C   0  0  0  0  0  0  0  0  0  0  0  0
    8.7036   -1.0352   -0.7356 C   0  0  0  0  0  0  0  0  0  0  0  0
    8.7289   -2.3724   -0.3646 C   0  0  0  0  0  0  0  0  0  0  0  0
    9.8938   -3.1029   -0.5297 C   0  0  0  0  0  0  0  0  0  0  0  0
    9.9402   -4.4335   -0.1672 C   0  0  0  0  0  0  0  0  0  0  0  0
    8.7985   -5.0264    0.3658 C   0  0  0  0  0  0  0  0  0  0  0  0
    7.6483   -4.2800    0.5216 C   0  0  0  0  0  0  0  0  0  0  0  0
    7.6104   -2.9597    0.1594 C   0  0  0  0  0  0  0  0  0  0  0  0
    6.4430   -2.2042    0.3184 C   0  0  0  0  0  0  0  0  0  0  0  0
    3.9551   -0.7059    0.0100 C   0  0  0  0  0  0  0  0  0  0  0  0
    2.8000    0.0475    0.1742 C   0  0  0  0  0  0  0  0  0  0  0  0
    1.4686   -0.3070    0.1290 C   0  0  0  0  0  0  0  0  0  0  0  0
    0.8695   -1.5001   -0.1522 C   0  0  0  0  0  0  0  0  0  0  0  0
   -0.4885   -1.6371   -0.1764 C   0  0  0  0  0  0  0  0  0  0  0  0
   -1.2227   -0.4973    0.1127 C   0  0  0  0  0  0  0  0  0  0  0  0
   -2.5947   -0.3957    0.2819 C   0  0  0  0  0  0  0  0  0  0  0  0
   -3.5899   -1.3334    0.0970 C   0  0  0  0  0  0  0  0  0  0  0  0
   -4.8868   -0.9418    0.3413 C   0  0  0  0  0  0  0  0  0  0  0  0
   -5.9793   -1.8887    0.1643 C   0  0  0  0  0  0  0  0  0  0  0  0
   -7.1098   -1.8059    0.9394 C   0  0  0  0  0  0  0  0  0  0  0  0
   -8.1338   -2.6959    0.7760 C   0  0  0  0  0  0  0  0  0  0  0  0
   -8.0204   -3.6772   -0.1742 C   0  0  0  0  0  0  0  0  0  0  0  0
   -9.0582   -4.5715   -0.3322 C   0  0  0  0  0  0  0  0  0  0  0  0
   -8.9250   -5.5523   -1.2938 C   0  0  0  0  0  0  0  0  0  0  0  0
   -7.7959   -5.6533   -2.0843 C   0  0  0  0  0  0  0  0  0  0  0  0
   -6.7888   -4.7579   -1.9064 C   0  0  0  0  0  0  0  0  0  0  0  0
   -6.8729   -3.7606   -0.9605 C   0  0  0  0  0  0  0  0  0  0  0  0
   -5.8346   -2.8635   -0.7997 C   0  0  0  0  0  0  0  0  0  0  0  0
   -5.1415    0.3442    0.7531 C   0  0  0  0  0  0  0  0  0  0  0  0
   -4.1183    1.2799    0.9350 C   0  0  0  0  0  0  0  0  0  0  0  0
   -2.8299    0.8764    0.6876 C   0  0  0  0  0  0  0  0  0  0  0  0
   -1.6617    1.5919    0.7802 N   0  0  0  0  0  0  0  0  0  0  0  0
   -1.6343    2.8463    1.4711 C   0  0  0  0  0  0  0  0  0  0  0  0
   -2.0095    4.0644    0.7639 C   0  0  0  0  0  0  0  0  0  0  0  0
   -1.9383    5.2187    1.8281 C   0  0  0  0  0  0  0  0  0  0  0  0
   -2.3305    6.4647    1.0717 C   0  0  0  0  0  0  0  0  0  0  0  0
   -0.6880    0.7490    0.4084 C   0  0  0  0  0  0  0  0  0  0  0  0
    0.7175    0.8311    0.3918 C   0  0  0  0  0  0  0  0  0  0  0  0
   -0.9773    2.7016   -1.6559 H   0  0  0  0  0  0  0  0  0  0  0  0
   -0.7192    4.3958   -2.3177 H   0  0  0  0  0  0  0  0  0  0  0  0
   -0.5217    2.9980   -3.3623 H   0  0  0  0  0  0  0  0  0  0  0  0
    1.4835    2.2926   -2.2335 H   0  0  0  0  0  0  0  0  0  0  0  0
    1.5612    3.9747   -2.8445 H   0  0  0  0  0  0  0  0  0  0  0  0
    2.7918    4.0096   -0.8123 H   0  0  0  0  0  0  0  0  0  0  0  0
    1.3354    4.9647   -0.6799 H   0  0  0  0  0  0  0  0  0  0  0  0
    2.2523    3.6583    1.2588 H   0  0  0  0  0  0  0  0  0  0  0  0
    0.5647    3.7615    1.0173 H   0  0  0  0  0  0  0  0  0  0  0  0
    4.1257    3.0221    0.7999 H   0  0  0  0  0  0  0  0  0  0  0  0
    6.1877    1.7448    0.5064 H   0  0  0  0  0  0  0  0  0  0  0  0
    7.5252    0.7420   -0.8629 H   0  0  0  0  0  0  0  0  0  0  0  0
    9.5985   -0.6013   -1.1445 H   0  0  0  0  0  0  0  0  0  0  0  0
   10.7980   -2.6789   -0.9388 H   0  0  0  0  0  0  0  0  0  0  0  0
   10.8543   -5.0039   -0.2969 H   0  0  0  0  0  0  0  0  0  0  0  0
    8.8513   -6.0565    0.6412 H   0  0  0  0  0  0  0  0  0  0  0  0
    6.7690   -4.7395    0.9328 H   0  0  0  0  0  0  0  0  0  0  0  0
    5.5579   -2.6675    0.7322 H   0  0  0  0  0  0  0  0  0  0  0  0
    3.8590   -1.7755   -0.2117 H   0  0  0  0  0  0  0  0  0  0  0  0
    1.5357   -2.3570   -0.3608 H   0  0  0  0  0  0  0  0  0  0  0  0
   -0.9347   -2.5724   -0.4059 H   0  0  0  0  0  0  0  0  0  0  0  0
   -3.4016   -2.3468   -0.2261 H   0  0  0  0  0  0  0  0  0  0  0  0
   -7.1715   -1.0284    1.6760 H   0  0  0  0  0  0  0  0  0  0  0  0
   -9.0250   -2.6019    1.4127 H   0  0  0  0  0  0  0  0  0  0  0  0
   -9.9258   -4.4630    0.3029 H   0  0  0  0  0  0  0  0  0  0  0  0
   -9.7485   -6.2515   -1.4101 H   0  0  0  0  0  0  0  0  0  0  0  0
   -7.7182   -6.4330   -2.8309 H   0  0  0  0  0  0  0  0  0  0  0  0
   -5.8849   -4.8141   -2.5178 H   0  0  0  0  0  0  0  0  0  0  0  0
   -4.9461   -2.9405   -1.4196 H   0  0  0  0  0  0  0  0  0  0  0  0
   -6.1600    0.6577    0.9471 H   0  0  0  0  0  0  0  0  0  0  0  0
   -4.3317    2.2716    1.2568 H   0  0  0  0  0  0  0  0  0  0  0  0
   -2.5217    2.7816    2.2939 H   0  0  0  0  0  0  0  0  0  0  0  0
   -0.8299    2.9221    2.2563 H   0  0  0  0  0  0  0  0  0  0  0  0
   -1.4317    4.3773   -0.0895 H   0  0  0  0  0  0  0  0  0  0  0  0
   -3.0953    4.1127    0.4752 H   0  0  0  0  0  0  0  0  0  0  0  0
   -2.6095    5.0014    2.6583 H   0  0  0  0  0  0  0  0  0  0  0  0
   -0.8745    5.3162    2.0941 H   0  0  0  0  0  0  0  0  0  0  0  0
   -1.9825    7.3485    1.6288 H   0  0  0  0  0  0  0  0  0  0  0  0
   -3.4307    6.5515    0.9748 H   0  0  0  0  0  0  0  0  0  0  0  0
   -1.8615    6.3963    0.0616 H   0  0  0  0  0  0  0  0  0  0  0  0
  1  2  1  0
  2  3  1  0
  3  4  1  0
  4  5  1  0
  5  6  1  0
  6  7  2  0
  7  8  1  0
  8  9  2  0
  9 10  1  0
 10 11  2  0
 11 12  1  0
 12 13  2  0
 13 14  1  0
 14 15  2  0
 15 16  1  0
 16 17  2  0
 17 18  1  0
 18 19  2  0
  9 20  1  0
 20 21  2  0
 21 22  1  0
 22 23  2  0
 23 24  1  0
 24 25  2  0
 25 26  1  0
 26 27  2  0
 27 28  1  0
 28 29  1  0
 29 30  2  0
 30 31  1  0
 31 32  2  0
 32 33  1  0
 33 34  2  0
 34 35  1  0
 35 36  2  0
 36 37  1  0
 37 38  2  0
 28 39  2  0
 39 40  1  0
 40 41  2  0
 41 42  1  0
 42 43  1  0
 43 44  1  0
 44 45  1  0
 45 46  1  0
 42 47  1  0
 47 48  2  0
 48  5  1  0
 21  6  1  0
 48 22  1  0
 19 10  1  0
 47 25  1  0
 18 13  1  0
 41 26  1  0
 38 29  1  0
 37 32  1  0
  1 49  1  0
  1 50  1  0
  1 51  1  0
  2 52  1  0
  2 53  1  0
  3 54  1  0
  3 55  1  0
  4 56  1  0
  4 57  1  0
  7 58  1  0
  8 59  1  0
 11 60  1  0
 12 61  1  0
 14 62  1  0
 15 63  1  0
 16 64  1  0
 17 65  1  0
 19 66  1  0
 20 67  1  0
 23 68  1  0
 24 69  1  0
 27 70  1  0
 30 71  1  0
 31 72  1  0
 33 73  1  0
 34 74  1  0
 35 75  1  0
 36 76  1  0
 38 77  1  0
 39 78  1  0
 40 79  1  0
 43 80  1  0
 43 81  1  0
 44 82  1  0
 44 83  1  0
 45 84  1  0
 45 85  1  0
 46 86  1  0
 46 87  1  0
 46 88  1  0
M  END
