
     RDKit          3D

 69 75  0  0  0  0  0  0  0  0999 V2000
   -3.7665   -1.6158   -2.4107 C   0  0  0  0  0  0  0  0  0  0  0  0
   -3.7314   -0.8899   -1.1578 N   0  0  0  0  0  0  0  0  0  0  0  0
   -2.7113   -0.4209   -0.4723 C   0  0  0  0  0  0  0  0  0  0  0  0
   -1.2746   -0.5122   -0.8028 C   0  0  0  0  0  0  0  0  0  0  0  0
   -0.6175   -1.0599   -1.8542 C   0  0  0  0  0  0  0  0  0  0  0  0
    0.7247   -0.9872   -1.8724 C   0  0  0  0  0  0  0  0  0  0  0  0
    1.3373   -0.3620   -0.8232 C   0  0  0  0  0  0  0  0  0  0  0  0
    2.7925   -0.1627   -0.6256 C   0  0  0  0  0  0  0  0  0  0  0  0
    3.7823   -0.5536   -1.4387 N   0  0  0  0  0  0  0  0  0  0  0  0
    4.9739   -0.1989   -0.9269 C   0  0  0  0  0  0  0  0  0  0  0  0
    6.3096   -0.4401   -1.5000 C   0  0  0  0  0  0  0  0  0  0  0  0
    6.6954   -1.7446   -1.7109 C   0  0  0  0  0  0  0  0  0  0  0  0
    7.9347   -2.0091   -2.2433 C   0  0  0  0  0  0  0  0  0  0  0  0
    8.8182   -1.0196   -2.5792 C   0  0  0  0  0  0  0  0  0  0  0  0
    8.3920    0.2892   -2.3510 C   0  0  0  0  0  0  0  0  0  0  0  0
    7.1586    0.5884   -1.8199 C   0  0  0  0  0  0  0  0  0  0  0  0
    4.6841    0.4464    0.2696 C   0  0  0  0  0  0  0  0  0  0  0  0
    5.7087    0.9850    1.1289 C   0  0  0  0  0  0  0  0  0  0  0  0
    6.6444    0.1297    1.6661 C   0  0  0  0  0  0  0  0  0  0  0  0
    7.6424    0.5985    2.4921 C   0  0  0  0  0  0  0  0  0  0  0  0
    7.6992    1.9365    2.7796 C   0  0  0  0  0  0  0  0  0  0  0  0
    6.7755    2.8237    2.2572 C   0  0  0  0  0  0  0  0  0  0  0  0
    5.7702    2.3246    1.4201 C   0  0  0  0  0  0  0  0  0  0  0  0
    3.3418    0.4470    0.4158 N   0  0  0  0  0  0  0  0  0  0  0  0
    2.6908    1.0438    1.5633 C   0  0  0  0  0  0  0  0  0  0  0  0
    0.0307    0.1071    0.1592 S   0  0  0  0  0  0  0  0  0  0  0  0
   -3.1745    0.1981    0.6585 N   0  0  0  0  0  0  0  0  0  0  0  0
   -4.5119    0.1229    0.6951 C   0  0  0  0  0  0  0  0  0  0  0  0
   -5.4224    0.6504    1.7245 C   0  0  0  0  0  0  0  0  0  0  0  0
   -6.3282    1.6147    1.2863 C   0  0  0  0  0  0  0  0  0  0  0  0
   -7.2450    2.2009    2.1421 C   0  0  0  0  0  0  0  0  0  0  0  0
   -7.2193    1.7829    3.4563 C   0  0  0  0  0  0  0  0  0  0  0  0
   -6.3279    0.8348    3.8851 C   0  0  0  0  0  0  0  0  0  0  0  0
   -5.4208    0.2591    3.0237 C   0  0  0  0  0  0  0  0  0  0  0  0
   -4.8625   -0.5609   -0.4462 C   0  0  0  0  0  0  0  0  0  0  0  0
   -6.2327   -0.8681   -0.8063 C   0  0  0  0  0  0  0  0  0  0  0  0
   -6.7877   -0.3926   -1.9718 C   0  0  0  0  0  0  0  0  0  0  0  0
   -8.1063   -0.6875   -2.3214 C   0  0  0  0  0  0  0  0  0  0  0  0
   -8.8889   -1.4679   -1.5008 C   0  0  0  0  0  0  0  0  0  0  0  0
   -8.3416   -1.9468   -0.3346 C   0  0  0  0  0  0  0  0  0  0  0  0
   -7.0371   -1.6445   -0.0066 C   0  0  0  0  0  0  0  0  0  0  0  0
   -4.8388   -1.8567   -2.6368 H   0  0  0  0  0  0  0  0  0  0  0  0
   -3.3737   -1.0270   -3.2698 H   0  0  0  0  0  0  0  0  0  0  0  0
   -3.2452   -2.5762   -2.3217 H   0  0  0  0  0  0  0  0  0  0  0  0
   -1.1988   -1.5512   -2.6691 H   0  0  0  0  0  0  0  0  0  0  0  0
    1.3449   -1.4072   -2.6908 H   0  0  0  0  0  0  0  0  0  0  0  0
    6.0255   -2.5846   -1.4596 H   0  0  0  0  0  0  0  0  0  0  0  0
    8.2613   -3.0390   -2.4194 H   0  0  0  0  0  0  0  0  0  0  0  0
    9.7873   -1.2104   -2.9949 H   0  0  0  0  0  0  0  0  0  0  0  0
    9.0834    1.1020   -2.6123 H   0  0  0  0  0  0  0  0  0  0  0  0
    6.8486    1.6276   -1.6503 H   0  0  0  0  0  0  0  0  0  0  0  0
    6.5911   -0.9252    1.4330 H   0  0  0  0  0  0  0  0  0  0  0  0
    8.3566   -0.0904    2.8952 H   0  0  0  0  0  0  0  0  0  0  0  0
    8.4952    2.2949    3.4357 H   0  0  0  0  0  0  0  0  0  0  0  0
    6.7954    3.8851    2.4669 H   0  0  0  0  0  0  0  0  0  0  0  0
    5.0294    2.9817    0.9915 H   0  0  0  0  0  0  0  0  0  0  0  0
    3.4101    1.1987    2.4089 H   0  0  0  0  0  0  0  0  0  0  0  0
    2.3279    2.0790    1.3183 H   0  0  0  0  0  0  0  0  0  0  0  0
    1.8240    0.4737    1.9262 H   0  0  0  0  0  0  0  0  0  0  0  0
   -6.3396    1.9349    0.2546 H   0  0  0  0  0  0  0  0  0  0  0  0
   -7.9561    2.9560    1.8037 H   0  0  0  0  0  0  0  0  0  0  0  0
   -7.9308    2.2308    4.1443 H   0  0  0  0  0  0  0  0  0  0  0  0
   -6.3357    0.5358    4.9059 H   0  0  0  0  0  0  0  0  0  0  0  0
   -4.6997   -0.5007    3.3468 H   0  0  0  0  0  0  0  0  0  0  0  0
   -6.1686    0.2210   -2.6143 H   0  0  0  0  0  0  0  0  0  0  0  0
   -8.5242   -0.3050   -3.2406 H   0  0  0  0  0  0  0  0  0  0  0  0
   -9.9261   -1.6975   -1.7801 H   0  0  0  0  0  0  0  0  0  0  0  0
   -8.9449   -2.5657    0.3275 H   0  0  0  0  0  0  0  0  0  0  0  0
   -6.5974   -2.0236    0.9209 H   0  0  0  0  0  0  0  0  0  0  0  0
  1  2  1  0
  2  3  1  0
  3  4  1  0
  4  5  2  0
  5  6  1  0
  6  7  2  0
  7  8  1  0
  8  9  2  0
  9 10  1  0
 10 11  1  0
 11 12  2  0
 12 13  1  0
 13 14  2  0
 14 15  1  0
 15 16  2  0
 10 17  2  0
 17 18  1  0
 18 19  2  0
 19 20  1  0
 20 21  2  0
 21 22  1  0
 22 23  2  0
 17 24  1  0
 24 25  1  0
  7 26  1  0
  3 27  2  0
 27 28  1  0
 28 29  1  0
 29 30  2  0
 30 31  1  0
 31 32  2  0
 32 33  1  0
 33 34  2  0
 28 35  2  0
 35 36  1  0
 36 37  2  0
 37 38  1  0
 38 39  2  0
 39 40  1  0
 40 41  2  0
 35  2  1  0
 41 36  1  0
 26  4  1  0
 34 29  1  0
 24  8  1  0
 16 11  1  0
 23 18  1  0
  1 42  1  0
  1 43  1  0
  1 44  1  0
  5 45  1  0
  6 46  1  0
 12 47  1  0
 13 48  1  0
 14 49  1  0
 15 50  1  0
 16 51  1  0
 19 52  1  0
 20 53  1  0
 21 54  1  0
 22 55  1  0
 23 56  1  0
 25 57  1  0
 25 58  1  0
 25 59  1  0
 30 60  1  0
 31 61  1  0
 32 62  1  0
 33 63  1  0
 34 64  1  0
 37 65  1  0
 38 66  1  0
 39 67  1  0
 40 68  1  0
 41 69  1  0
M  END
