
     RDKit          3D

 47 50  0  0  0  0  0  0  0  0999 V2000
    7.0648   -1.3173    0.0518 N   0  0  0  0  0  0  0  0  0  0  0  0
    6.3292    0.0914   -0.6600 S   0  0  0  0  0  6  0  0  0  0  0  0
    6.7294    0.0912   -2.1106 O   0  0  0  0  0  0  0  0  0  0  0  0
    6.8009    1.3159    0.0449 O   0  0  0  0  0  0  0  0  0  0  0  0
    4.5888   -0.0295   -0.5087 C   0  0  0  0  0  0  0  0  0  0  0  0
    3.7880   -0.6134   -1.4442 C   0  0  0  0  0  0  0  0  0  0  0  0
    2.4041   -0.6833   -1.2738 C   0  0  0  0  0  0  0  0  0  0  0  0
    1.8096   -0.1571   -0.1425 C   0  0  0  0  0  0  0  0  0  0  0  0
    0.4153   -0.2044    0.0725 N   0  0  0  0  0  0  0  0  0  0  0  0
   -0.5769   -0.7427   -0.7489 N   0  0  0  0  0  0  0  0  0  0  0  0
   -1.6470   -1.0025   -0.0928 C   0  0  0  0  0  0  0  0  0  0  0  0
   -2.9047   -1.5739   -0.6040 C   0  0  0  0  0  0  0  0  0  0  0  0
   -3.9540   -1.7827    0.2605 C   0  0  0  0  0  0  0  0  0  0  0  0
   -5.1694   -2.3140   -0.1332 C   0  0  0  0  0  0  0  0  0  0  0  0
   -5.3165   -2.6453   -1.4673 C   0  0  0  0  0  0  0  0  0  0  0  0
   -6.5347   -3.1886   -1.9141 O   0  0  0  0  0  0  0  0  0  0  0  0
   -4.2637   -2.4363   -2.3371 C   0  0  0  0  0  0  0  0  0  0  0  0
   -3.0546   -1.9057   -1.9355 C   0  0  0  0  0  0  0  0  0  0  0  0
   -1.4293   -0.6367    1.3209 C   0  0  0  0  0  0  0  0  0  0  0  0
   -0.2678    0.3152    1.2259 C   0  0  0  0  0  0  0  0  0  0  0  0
   -0.6536    1.7128    1.1195 C   0  0  0  0  0  0  0  0  0  0  0  0
   -0.4367    2.5683    2.1769 C   0  0  0  0  0  0  0  0  0  0  0  0
   -0.7990    3.9178    2.0985 C   0  0  0  0  0  0  0  0  0  0  0  0
   -1.3826    4.3989    0.9442 C   0  0  0  0  0  0  0  0  0  0  0  0
   -1.6036    3.5621   -0.1120 C   0  0  0  0  0  0  0  0  0  0  0  0
   -1.2363    2.2127   -0.0214 C   0  0  0  0  0  0  0  0  0  0  0  0
    2.6341    0.4291    0.7922 C   0  0  0  0  0  0  0  0  0  0  0  0
    4.0047    0.5013    0.6291 C   0  0  0  0  0  0  0  0  0  0  0  0
    7.3094   -1.1004    1.0605 H   0  0  0  0  0  0  0  0  0  0  0  0
    6.4330   -2.1327    0.0335 H   0  0  0  0  0  0  0  0  0  0  0  0
    4.2517   -1.0240   -2.3269 H   0  0  0  0  0  0  0  0  0  0  0  0
    1.7932   -1.1433   -2.0152 H   0  0  0  0  0  0  0  0  0  0  0  0
   -3.8439   -1.5240    1.3107 H   0  0  0  0  0  0  0  0  0  0  0  0
   -5.9473   -2.4494    0.6009 H   0  0  0  0  0  0  0  0  0  0  0  0
   -6.6452   -4.1782   -1.8967 H   0  0  0  0  0  0  0  0  0  0  0  0
   -4.3983   -2.7023   -3.3791 H   0  0  0  0  0  0  0  0  0  0  0  0
   -2.2283   -1.7408   -2.6140 H   0  0  0  0  0  0  0  0  0  0  0  0
   -2.3244   -0.1694    1.7837 H   0  0  0  0  0  0  0  0  0  0  0  0
   -1.1879   -1.5110    1.9601 H   0  0  0  0  0  0  0  0  0  0  0  0
    0.3839    0.0948    2.1021 H   0  0  0  0  0  0  0  0  0  0  0  0
    0.0157    2.2633    3.1131 H   0  0  0  0  0  0  0  0  0  0  0  0
   -0.6434    4.6149    2.9078 H   0  0  0  0  0  0  0  0  0  0  0  0
   -1.6679    5.4606    0.8819 H   0  0  0  0  0  0  0  0  0  0  0  0
   -2.0615    3.9640   -1.0030 H   0  0  0  0  0  0  0  0  0  0  0  0
   -1.4085    1.5636   -0.8425 H   0  0  0  0  0  0  0  0  0  0  0  0
    2.2286    0.8591    1.6987 H   0  0  0  0  0  0  0  0  0  0  0  0
    4.6028    0.9719    1.3935 H   0  0  0  0  0  0  0  0  0  0  0  0
  1  2  1  0
  2  3  2  0
  2  4  2  0
  2  5  1  0
  5  6  2  0
  6  7  1  0
  7  8  2  0
  8  9  1  0
  9 10  1  0
 10 11  2  0
 11 12  1  0
 12 13  2  0
 13 14  1  0
 14 15  2  0
 15 16  1  0
 15 17  1  0
 17 18  2  0
 11 19  1  0
 19 20  1  0
 20 21  1  0
 21 22  2  0
 22 23  1  0
 23 24  2  0
 24 25  1  0
 25 26  2  0
  8 27  1  0
 27 28  2  0
 28  5  1  0
 20  9  1  0
 26 21  1  0
 18 12  1  0
  1 29  1  0
  1 30  1  0
  6 31  1  0
  7 32  1  0
 13 33  1  0
 14 34  1  0
 16 35  1  0
 17 36  1  0
 18 37  1  0
 19 38  1  0
 19 39  1  0
 20 40  1  0
 22 41  1  0
 23 42  1  0
 24 43  1  0
 25 44  1  0
 26 45  1  0
 27 46  1  0
 28 47  1  0
M  END
