
     RDKit          3D

 64 68  0  0  0  0  0  0  0  0999 V2000
   -4.6229    0.7688    5.2447 C   0  0  0  0  0  0  0  0  0  0  0  0
   -4.0434    0.5715    3.8853 C   0  0  0  0  0  0  0  0  0  0  0  0
   -3.0560   -0.3479    3.6289 C   0  0  0  0  0  0  0  0  0  0  0  0
   -2.5590   -0.4902    2.3661 C   0  0  0  0  0  0  0  0  0  0  0  0
   -3.0257    0.2893    1.2668 C   0  0  0  0  0  0  0  0  0  0  0  0
   -2.4066    0.0576    0.0219 N   0  0  0  0  0  0  0  0  0  0  0  0
   -2.9661   -0.1310   -1.2593 C   0  0  0  0  0  0  0  0  0  0  0  0
   -2.4623   -1.2117   -2.0162 C   0  0  0  0  0  0  0  0  0  0  0  0
   -2.9262   -1.4505   -3.2706 C   0  0  0  0  0  0  0  0  0  0  0  0
   -3.8975   -0.6763   -3.8820 C   0  0  0  0  0  0  0  0  0  0  0  0
   -4.3850   -0.9626   -5.2550 C   0  0  0  0  0  0  0  0  0  0  0  0
   -4.3657    0.3646   -3.1220 C   0  0  0  0  0  0  0  0  0  0  0  0
   -3.9171    0.6456   -1.8309 C   0  0  0  0  0  0  0  0  0  0  0  0
   -0.9574    0.0218    0.0349 C   0  0  0  0  0  0  0  0  0  0  0  0
   -0.0027   -0.9297    0.2205 C   0  0  0  0  0  0  0  0  0  0  0  0
    0.0380   -2.3152    0.4827 O   0  0  0  0  0  1  0  0  0  0  0  0
    1.0089    0.0106    0.0460 C   0  0  0  0  0  0  0  0  0  0  0  0
    2.3205    0.0449    0.0245 N   0  0  0  0  0  4  0  0  0  0  0  0
    2.9699   -1.1893    0.2303 C   0  0  0  0  0  0  0  0  0  0  0  0
    2.5892   -1.8765    1.4140 C   0  0  0  0  0  0  0  0  0  0  0  0
    3.1140   -3.0953    1.6841 C   0  0  0  0  0  0  0  0  0  0  0  0
    4.0193   -3.7362    0.8693 C   0  0  0  0  0  0  0  0  0  0  0  0
    4.5952   -5.0683    1.1616 C   0  0  0  0  0  0  0  0  0  0  0  0
    4.3845   -3.0645   -0.2757 C   0  0  0  0  0  0  0  0  0  0  0  0
    3.8645   -1.8142   -0.5825 C   0  0  0  0  0  0  0  0  0  0  0  0
    2.9231    1.2588   -0.2901 C   0  0  0  0  0  0  0  0  0  0  0  0
    2.5709    2.4010    0.4820 C   0  0  0  0  0  0  0  0  0  0  0  0
    3.0673    3.6363    0.1923 C   0  0  0  0  0  0  0  0  0  0  0  0
    3.9241    3.7746   -0.8651 C   0  0  0  0  0  0  0  0  0  0  0  0
    4.4810    5.1116   -1.2029 C   0  0  0  0  0  0  0  0  0  0  0  0
    4.2786    2.7055   -1.6182 C   0  0  0  0  0  0  0  0  0  0  0  0
    3.7784    1.4317   -1.3364 C   0  0  0  0  0  0  0  0  0  0  0  0
    0.0358    0.9578   -0.1403 C   0  0  0  0  0  0  0  0  0  0  0  0
   -0.0697    2.2139   -0.3836 O   0  0  0  0  0  0  0  0  0  0  0  0
   -3.9924    1.1882    1.5267 C   0  0  0  0  0  0  0  0  0  0  0  0
   -4.4990    1.3276    2.8317 C   0  0  0  0  0  0  0  0  0  0  0  0
   -4.3932    1.7766    5.6134 H   0  0  0  0  0  0  0  0  0  0  0  0
   -5.7306    0.6782    5.1954 H   0  0  0  0  0  0  0  0  0  0  0  0
   -4.2224   -0.0200    5.9012 H   0  0  0  0  0  0  0  0  0  0  0  0
   -2.7064   -0.9390    4.4774 H   0  0  0  0  0  0  0  0  0  0  0  0
   -1.7774   -1.2222    2.1748 H   0  0  0  0  0  0  0  0  0  0  0  0
   -1.6871   -1.8438   -1.5490 H   0  0  0  0  0  0  0  0  0  0  0  0
   -2.5369   -2.2848   -3.8543 H   0  0  0  0  0  0  0  0  0  0  0  0
   -5.2608   -1.6678   -5.1507 H   0  0  0  0  0  0  0  0  0  0  0  0
   -3.6267   -1.5179   -5.8442 H   0  0  0  0  0  0  0  0  0  0  0  0
   -4.7181   -0.0392   -5.7768 H   0  0  0  0  0  0  0  0  0  0  0  0
   -5.1365    1.0147   -3.5507 H   0  0  0  0  0  0  0  0  0  0  0  0
   -4.3597    1.5244   -1.3288 H   0  0  0  0  0  0  0  0  0  0  0  0
    1.9086   -1.4047    2.0846 H   0  0  0  0  0  0  0  0  0  0  0  0
    2.8324   -3.6458    2.5948 H   0  0  0  0  0  0  0  0  0  0  0  0
    4.5551   -5.3083    2.2498 H   0  0  0  0  0  0  0  0  0  0  0  0
    5.6739   -5.1409    0.8858 H   0  0  0  0  0  0  0  0  0  0  0  0
    4.0873   -5.8770    0.5826 H   0  0  0  0  0  0  0  0  0  0  0  0
    5.0922   -3.5177   -0.9536 H   0  0  0  0  0  0  0  0  0  0  0  0
    4.1878   -1.3756   -1.4940 H   0  0  0  0  0  0  0  0  0  0  0  0
    1.9042    2.2320    1.3337 H   0  0  0  0  0  0  0  0  0  0  0  0
    2.7819    4.5031    0.7997 H   0  0  0  0  0  0  0  0  0  0  0  0
    5.5754    5.1066   -0.9723 H   0  0  0  0  0  0  0  0  0  0  0  0
    3.9459    5.9143   -0.6803 H   0  0  0  0  0  0  0  0  0  0  0  0
    4.4025    5.2739   -2.3016 H   0  0  0  0  0  0  0  0  0  0  0  0
    4.9496    2.8103   -2.4463 H   0  0  0  0  0  0  0  0  0  0  0  0
    4.1037    0.6618   -2.0021 H   0  0  0  0  0  0  0  0  0  0  0  0
   -4.3835    1.8249    0.7547 H   0  0  0  0  0  0  0  0  0  0  0  0
   -5.2697    2.0619    2.9732 H   0  0  0  0  0  0  0  0  0  0  0  0
  1  2  1  0
  2  3  2  0
  3  4  1  0
  4  5  2  0
  5  6  1  0
  6  7  1  0
  7  8  2  0
  8  9  1  0
  9 10  2  0
 10 11  1  0
 10 12  1  0
 12 13  2  0
  6 14  1  0
 14 15  2  0
 15 16  1  0
 15 17  1  0
 17 18  2  3
 18 19  1  0
 19 20  2  0
 20 21  1  0
 21 22  2  0
 22 23  1  0
 22 24  1  0
 24 25  2  0
 18 26  1  0
 26 27  2  0
 27 28  1  0
 28 29  2  0
 29 30  1  0
 29 31  1  0
 31 32  2  0
 17 33  1  0
 33 34  2  0
  5 35  1  0
 35 36  2  0
 36  2  1  0
 13  7  1  0
 33 14  1  0
 25 19  1  0
 32 26  1  0
  1 37  1  0
  1 38  1  0
  1 39  1  0
  3 40  1  0
  4 41  1  0
  8 42  1  0
  9 43  1  0
 11 44  1  0
 11 45  1  0
 11 46  1  0
 12 47  1  0
 13 48  1  0
 20 49  1  0
 21 50  1  0
 23 51  1  0
 23 52  1  0
 23 53  1  0
 24 54  1  0
 25 55  1  0
 27 56  1  0
 28 57  1  0
 30 58  1  0
 30 59  1  0
 30 60  1  0
 31 61  1  0
 32 62  1  0
 35 63  1  0
 36 64  1  0
M  CHG  2  16  -1  18   1
M  END
