
     RDKit          3D

 43 46  0  0  0  0  0  0  0  0999 V2000
    5.3455    2.2086   -2.4916 C   0  0  0  0  0  0  0  0  0  0  0  0
    4.0974    2.7427   -2.0344 O   0  0  0  0  0  0  0  0  0  0  0  0
    3.1985    1.8403   -1.4686 C   0  0  0  0  0  0  0  0  0  0  0  0
    3.4625    0.5020   -1.3403 C   0  0  0  0  0  0  0  0  0  0  0  0
    2.5273   -0.3434   -0.7690 C   0  0  0  0  0  0  0  0  0  0  0  0
    1.3361    0.2035   -0.3394 C   0  0  0  0  0  0  0  0  0  0  0  0
    0.2323   -0.3699    0.2573 C   0  0  0  0  0  0  0  0  0  0  0  0
   -0.0843   -1.6579    0.6351 C   0  0  0  0  0  0  0  0  0  0  0  0
    0.7873   -2.7084    0.4396 O   0  0  0  0  0  0  0  0  0  0  0  0
    0.7775   -3.4889   -0.7602 C   0  0  0  0  0  0  0  0  0  0  0  0
   -1.3036   -1.9591    1.2338 C   0  0  0  0  0  0  0  0  0  0  0  0
   -1.6423   -3.2294    1.6182 C   0  0  0  0  0  0  0  0  0  0  0  0
   -2.8572   -3.5459    2.2178 C   0  0  0  0  0  0  0  0  0  0  0  0
   -3.7577   -2.5222    2.4308 C   0  0  0  0  0  0  0  0  0  0  0  0
   -3.4308   -1.2351    2.0485 C   0  0  0  0  0  0  0  0  0  0  0  0
   -2.2107   -0.9421    1.4510 C   0  0  0  0  0  0  0  0  0  0  0  0
   -1.8796    0.3416    1.0674 C   0  0  0  0  0  0  0  0  0  0  0  0
   -2.7969    1.3473    1.2913 O   0  0  0  0  0  0  0  0  0  0  0  0
   -3.7876    1.7152    0.3489 C   0  0  0  0  0  0  0  0  0  0  0  0
   -0.6789    0.6697    0.4721 C   0  0  0  0  0  0  0  0  0  0  0  0
   -0.1516    1.8293    0.0243 N   0  0  0  0  0  0  0  0  0  0  0  0
   -0.7803    3.1546    0.0608 C   0  0  0  0  0  0  0  0  0  0  0  0
    1.0692    1.5483   -0.4676 C   0  0  0  0  0  0  0  0  0  0  0  0
    1.9926    2.3859   -1.0323 C   0  0  0  0  0  0  0  0  0  0  0  0
    5.0751    1.4965   -3.3125 H   0  0  0  0  0  0  0  0  0  0  0  0
    6.0064    3.0250   -2.8494 H   0  0  0  0  0  0  0  0  0  0  0  0
    5.8304    1.6701   -1.6461 H   0  0  0  0  0  0  0  0  0  0  0  0
    4.4142    0.1321   -1.6959 H   0  0  0  0  0  0  0  0  0  0  0  0
    2.7666   -1.3878   -0.6831 H   0  0  0  0  0  0  0  0  0  0  0  0
    0.1430   -4.3879   -0.6536 H   0  0  0  0  0  0  0  0  0  0  0  0
    0.4111   -2.8452   -1.5968 H   0  0  0  0  0  0  0  0  0  0  0  0
    1.8004   -3.8540   -1.0067 H   0  0  0  0  0  0  0  0  0  0  0  0
   -0.9455   -4.0431    1.4574 H   0  0  0  0  0  0  0  0  0  0  0  0
   -3.0855   -4.5694    2.5077 H   0  0  0  0  0  0  0  0  0  0  0  0
   -4.6995   -2.7785    2.8975 H   0  0  0  0  0  0  0  0  0  0  0  0
   -4.1346   -0.4415    2.2162 H   0  0  0  0  0  0  0  0  0  0  0  0
   -4.5714    0.9492    0.3093 H   0  0  0  0  0  0  0  0  0  0  0  0
   -3.3898    1.8596   -0.6674 H   0  0  0  0  0  0  0  0  0  0  0  0
   -4.2023    2.6881    0.6872 H   0  0  0  0  0  0  0  0  0  0  0  0
   -1.3071    3.3887   -0.8754 H   0  0  0  0  0  0  0  0  0  0  0  0
   -1.4196    3.2703    0.9693 H   0  0  0  0  0  0  0  0  0  0  0  0
    0.0494    3.8938    0.1877 H   0  0  0  0  0  0  0  0  0  0  0  0
    1.7940    3.4472   -1.1388 H   0  0  0  0  0  0  0  0  0  0  0  0
  1  2  1  0
  2  3  1  0
  3  4  2  0
  4  5  1  0
  5  6  2  0
  6  7  1  0
  7  8  2  0
  8  9  1  0
  9 10  1  0
  8 11  1  0
 11 12  2  0
 12 13  1  0
 13 14  2  0
 14 15  1  0
 15 16  2  0
 16 17  1  0
 17 18  1  0
 18 19  1  0
 17 20  2  0
 20 21  1  0
 21 22  1  0
 21 23  1  0
 23 24  2  0
 24  3  1  0
 23  6  1  0
 20  7  1  0
 16 11  1  0
  1 25  1  0
  1 26  1  0
  1 27  1  0
  4 28  1  0
  5 29  1  0
 10 30  1  0
 10 31  1  0
 10 32  1  0
 12 33  1  0
 13 34  1  0
 14 35  1  0
 15 36  1  0
 19 37  1  0
 19 38  1  0
 19 39  1  0
 22 40  1  0
 22 41  1  0
 22 42  1  0
 24 43  1  0
M  END
