
     RDKit          3D

 28 30  0  0  0  0  0  0  0  0999 V2000
   -5.7434   -0.8837    0.7613 C   0  0  0  0  0  0  0  0  0  0  0  0
   -4.7834   -1.6367    0.0223 O   0  0  0  0  0  0  0  0  0  0  0  0
   -3.4538   -1.1896    0.0414 C   0  0  0  0  0  0  0  0  0  0  0  0
   -2.4254   -1.7914   -0.6070 C   0  0  0  0  0  0  0  0  0  0  0  0
   -1.3061   -1.0829   -0.3584 N   0  0  0  0  0  0  0  0  0  0  0  0
    0.0144   -1.0686   -0.6402 C   0  0  0  0  0  0  0  0  0  0  0  0
    0.5337    0.0266    0.0116 C   0  0  0  0  0  0  0  0  0  0  0  0
    1.9414    0.4791    0.0173 C   0  0  0  0  0  0  0  0  0  0  0  0
    2.3297    1.6004    0.7162 C   0  0  0  0  0  0  0  0  0  0  0  0
    3.6318    2.0485    0.7423 C   0  0  0  0  0  0  0  0  0  0  0  0
    4.5906    1.3342    0.0307 C   0  0  0  0  0  0  0  0  0  0  0  0
    5.9449    1.7909    0.0513 C   0  0  0  0  0  0  0  0  0  0  0  0
    7.0625    2.1556    0.0513 N   0  0  0  0  0  0  0  0  0  0  0  0
    4.1953    0.2188   -0.6625 C   0  0  0  0  0  0  0  0  0  0  0  0
    2.8855   -0.2112   -0.6742 C   0  0  0  0  0  0  0  0  0  0  0  0
   -0.5054    0.5988    0.6416 N   0  0  0  0  0  2  0  0  0  0  0  0
   -1.6318   -0.0678    0.4239 N   0  0  0  0  0  4  0  0  0  0  0  0
   -2.9452   -0.0949    0.6951 C   0  0  0  0  0  0  0  0  0  0  0  0
   -5.4124   -0.7925    1.8015 H   0  0  0  0  0  0  0  0  0  0  0  0
   -6.7444   -1.3428    0.6381 H   0  0  0  0  0  0  0  0  0  0  0  0
   -5.7879    0.1200    0.2891 H   0  0  0  0  0  0  0  0  0  0  0  0
   -2.4974   -2.6921   -1.2215 H   0  0  0  0  0  0  0  0  0  0  0  0
    0.5599   -1.7769   -1.2564 H   0  0  0  0  0  0  0  0  0  0  0  0
    1.5798    2.1450    1.2629 H   0  0  0  0  0  0  0  0  0  0  0  0
    3.9040    2.9378    1.3045 H   0  0  0  0  0  0  0  0  0  0  0  0
    4.9808   -0.3144   -1.2091 H   0  0  0  0  0  0  0  0  0  0  0  0
    2.6028   -1.0891   -1.2261 H   0  0  0  0  0  0  0  0  0  0  0  0
   -3.5206    0.5789    1.2938 H   0  0  0  0  0  0  0  0  0  0  0  0
  1  2  1  0
  2  3  1  0
  3  4  2  0
  4  5  1  0
  5  6  1  0
  6  7  2  0
  7  8  1  0
  8  9  2  0
  9 10  1  0
 10 11  2  0
 11 12  1  0
 12 13  3  0
 11 14  1  0
 14 15  2  0
  7 16  1  0
 16 17  1  0
 17 18  2  0
 18  3  1  0
 17  5  1  0
 15  8  1  0
  1 19  1  0
  1 20  1  0
  1 21  1  0
  4 22  1  0
  6 23  1  0
  9 24  1  0
 10 25  1  0
 14 26  1  0
 15 27  1  0
 18 28  1  0
M  CHG  2  16  -1  17   1
M  END
