
     RDKit          3D

 20 20  0  0  0  0  0  0  0  0999 V2000
    3.6883   -0.5618    0.0154 C   0  0  0  0  0  0  0  0  0  0  0  0
    2.5091   -1.0949    0.2253 C   0  0  0  0  0  0  0  0  0  0  0  0
    1.2616   -0.3722    0.1096 C   0  0  0  0  0  0  0  0  0  0  0  0
    1.2540    0.9446   -0.2359 C   0  0  0  0  0  0  0  0  0  0  0  0
    0.0601    1.6253   -0.3438 C   0  0  0  0  0  0  0  0  0  0  0  0
   -1.1274    1.0141   -0.1127 C   0  0  0  0  0  0  0  0  0  0  0  0
   -1.1599   -0.3094    0.2368 C   0  0  0  0  0  0  0  0  0  0  0  0
   -2.3831   -0.9071    0.4665 O   0  0  0  0  0  0  0  0  0  0  0  0
   -3.5748   -0.1600    0.3410 C   0  0  0  0  0  0  0  0  0  0  0  0
    0.0319   -0.9880    0.3443 C   0  0  0  0  0  0  0  0  0  0  0  0
    4.5845   -1.1921    0.1278 H   0  0  0  0  0  0  0  0  0  0  0  0
    3.8962    0.4428   -0.2607 H   0  0  0  0  0  0  0  0  0  0  0  0
    2.4472   -2.1429    0.5042 H   0  0  0  0  0  0  0  0  0  0  0  0
    2.1763    1.4589   -0.4257 H   0  0  0  0  0  0  0  0  0  0  0  0
    0.1049    2.6646   -0.6194 H   0  0  0  0  0  0  0  0  0  0  0  0
   -2.0566    1.5450   -0.1970 H   0  0  0  0  0  0  0  0  0  0  0  0
   -3.6536    0.3575   -0.6452 H   0  0  0  0  0  0  0  0  0  0  0  0
   -4.4128   -0.9048    0.4618 H   0  0  0  0  0  0  0  0  0  0  0  0
   -3.6781    0.6131    1.1465 H   0  0  0  0  0  0  0  0  0  0  0  0
    0.0323   -2.0327    0.6187 H   0  0  0  0  0  0  0  0  0  0  0  0
  1  2  2  3
  2  3  1  0
  3  4  2  0
  4  5  1  0
  5  6  2  0
  6  7  1  0
  7  8  1  0
  8  9  1  0
  7 10  2  0
 10  3  1  0
  1 11  1  0
  1 12  1  0
  2 13  1  0
  4 14  1  0
  5 15  1  0
  6 16  1  0
  9 17  1  0
  9 18  1  0
  9 19  1  0
 10 20  1  0
M  END
