
     RDKit          3D

 57 60  0  0  0  0  0  0  0  0999 V2000
    3.4097   -3.5513   -1.0625 C   0  0  0  0  0  0  0  0  0  0  0  0
    3.7623   -2.4076   -0.3703 N   0  0  0  0  0  0  0  0  0  0  0  0
    3.8623   -2.5402    1.1046 C   0  0  0  0  0  0  0  0  0  0  0  0
    3.0373   -1.1586   -0.5937 C   0  0  0  0  0  0  0  0  0  0  0  0
    1.5833   -1.3172   -0.1355 C   0  0  0  0  0  0  0  0  0  0  0  0
    0.8342   -0.1543   -0.0751 N   0  0  0  0  0  0  0  0  0  0  0  0
   -0.4622    0.2675   -0.0707 C   0  0  0  0  0  0  0  0  0  0  0  0
   -1.7483   -0.2557   -0.2310 C   0  0  0  0  0  0  0  0  0  0  0  0
   -2.5524    0.4138   -1.2016 C   0  0  0  0  0  0  0  0  0  0  0  0
   -1.8083    1.1891   -2.0066 C   0  0  0  0  0  0  0  0  0  0  0  0
   -2.5243    1.8432   -3.0513 C   0  0  0  0  0  0  0  0  0  0  0  0
   -3.8763    1.7007   -3.2282 C   0  0  0  0  0  0  0  0  0  0  0  0
   -4.6090    0.8853   -2.3536 C   0  0  0  0  0  0  0  0  0  0  0  0
   -3.9107    0.2377   -1.3244 C   0  0  0  0  0  0  0  0  0  0  0  0
   -4.5844   -0.5929   -0.4883 C   0  0  0  0  0  0  0  0  0  0  0  0
   -3.8404   -1.2928    0.5075 C   0  0  0  0  0  0  0  0  0  0  0  0
   -4.5865   -2.0784    1.3855 C   0  0  0  0  0  0  0  0  0  0  0  0
   -3.9373   -2.7265    2.4122 C   0  0  0  0  0  0  0  0  0  0  0  0
   -2.5956   -2.5622    2.5227 C   0  0  0  0  0  0  0  0  0  0  0  0
   -1.8576   -1.7905    1.6576 C   0  0  0  0  0  0  0  0  0  0  0  0
   -2.4974   -1.0980    0.5779 C   0  0  0  0  0  0  0  0  0  0  0  0
    1.6555    1.1170    0.3223 C   0  0  0  0  0  0  0  0  0  0  0  0
    1.8926    1.2502    1.7051 C   0  0  0  0  0  0  0  0  0  0  0  0
    2.1733    2.4722    2.1785 C   0  0  0  0  0  0  0  0  0  0  0  0
    2.2726    3.6133    1.4177 C   0  0  0  0  0  0  0  0  0  0  0  0
    2.5055    4.9217    1.9733 N   0  0  0  0  0  4  0  0  0  0  0  0
    2.8846    5.1273    3.1553 O   0  0  0  0  0  0  0  0  0  0  0  0
    2.4010    6.0434    1.2106 O   0  0  0  0  0  1  0  0  0  0  0  0
    2.0480    3.3898    0.1109 C   0  0  0  0  0  0  0  0  0  0  0  0
    1.7275    2.1401   -0.5183 C   0  0  0  0  0  0  0  0  0  0  0  0
    1.5735    2.1472   -1.9031 N   0  0  0  0  0  4  0  0  0  0  0  0
    2.0139    1.1771   -2.5266 O   0  0  0  0  0  0  0  0  0  0  0  0
    0.9481    3.1513   -2.6581 O   0  0  0  0  0  1  0  0  0  0  0  0
    3.7028   -4.4785   -0.4895 H   0  0  0  0  0  0  0  0  0  0  0  0
    4.0765   -3.6020   -1.9436 H   0  0  0  0  0  0  0  0  0  0  0  0
    2.3966   -3.6461   -1.4486 H   0  0  0  0  0  0  0  0  0  0  0  0
    3.0633   -3.2566    1.4456 H   0  0  0  0  0  0  0  0  0  0  0  0
    4.8634   -2.7683    1.3981 H   0  0  0  0  0  0  0  0  0  0  0  0
    3.6167   -1.4729    1.5040 H   0  0  0  0  0  0  0  0  0  0  0  0
    3.5189   -0.3746   -0.0772 H   0  0  0  0  0  0  0  0  0  0  0  0
    3.1096   -0.9850   -1.6839 H   0  0  0  0  0  0  0  0  0  0  0  0
    1.1413   -1.9988   -0.9135 H   0  0  0  0  0  0  0  0  0  0  0  0
    1.5800   -1.9091    0.7751 H   0  0  0  0  0  0  0  0  0  0  0  0
   -0.5379    0.4366    1.3004 H   0  0  0  0  0  0  0  0  0  0  0  0
   -0.5352    1.4052   -0.1237 H   0  0  0  0  0  0  0  0  0  0  0  0
   -0.8020    1.3229   -1.9307 H   0  0  0  0  0  0  0  0  0  0  0  0
   -1.8788    2.4643   -3.7015 H   0  0  0  0  0  0  0  0  0  0  0  0
   -4.4045    2.2061   -3.9890 H   0  0  0  0  0  0  0  0  0  0  0  0
   -5.6756    0.7715   -2.4534 H   0  0  0  0  0  0  0  0  0  0  0  0
   -5.6537   -0.7511   -0.5147 H   0  0  0  0  0  0  0  0  0  0  0  0
   -5.6651   -2.2221    1.3040 H   0  0  0  0  0  0  0  0  0  0  0  0
   -4.5127   -3.3107    3.1092 H   0  0  0  0  0  0  0  0  0  0  0  0
   -1.9895   -3.0437    3.3076 H   0  0  0  0  0  0  0  0  0  0  0  0
   -0.7902   -1.5913    1.7291 H   0  0  0  0  0  0  0  0  0  0  0  0
    1.8245    0.3215    2.2846 H   0  0  0  0  0  0  0  0  0  0  0  0
    2.2632    2.6288    3.2866 H   0  0  0  0  0  0  0  0  0  0  0  0
    2.0939    4.2924   -0.6172 H   0  0  0  0  0  0  0  0  0  0  0  0
  1  2  1  0
  2  3  1  0
  2  4  1  0
  4  5  1  0
  5  6  1  0
  6  7  1  0
  7  8  1  0
  8  9  1  0
  9 10  2  0
 10 11  1  0
 11 12  2  0
 12 13  1  0
 13 14  2  0
 14 15  1  0
 15 16  2  0
 16 17  1  0
 17 18  2  0
 18 19  1  0
 19 20  2  0
 20 21  1  0
  6 22  1  0
 22 23  2  0
 23 24  1  0
 24 25  2  0
 25 26  1  0
 26 27  2  0
 26 28  1  0
 25 29  1  0
 29 30  2  0
 30 31  1  0
 31 32  2  0
 31 33  1  0
 21  8  2  0
 30 22  1  0
 14  9  1  0
 21 16  1  0
  1 34  1  0
  1 35  1  0
  1 36  1  0
  3 37  1  0
  3 38  1  0
  3 39  1  0
  4 40  1  0
  4 41  1  0
  5 42  1  0
  5 43  1  0
  7 44  1  0
  7 45  1  0
 10 46  1  0
 11 47  1  0
 12 48  1  0
 13 49  1  0
 15 50  1  0
 17 51  1  0
 18 52  1  0
 19 53  1  0
 20 54  1  0
 23 55  1  0
 24 56  1  0
 29 57  1  0
M  CHG  4  26   1  28  -1  31   1  33  -1
M  END
