
     RDKit          3D

 57 61  0  0  0  0  0  0  0  0999 V2000
   -8.0660    2.5472    0.1288 C   0  0  0  0  0  0  0  0  0  0  0  0
   -6.8052    2.0009   -0.1216 O   0  0  0  0  0  0  0  0  0  0  0  0
   -5.8991    1.6995    0.8819 C   0  0  0  0  0  0  0  0  0  0  0  0
   -6.2130    1.9232    2.0715 O   0  0  0  0  0  0  0  0  0  0  0  0
   -4.5930    1.1302    0.5937 C   0  0  0  0  0  0  0  0  0  0  0  0
   -4.1497    0.8465   -0.6823 C   0  0  0  0  0  0  0  0  0  0  0  0
   -2.9214    0.3139   -0.9133 C   0  0  0  0  0  0  0  0  0  0  0  0
   -2.0354    0.0203    0.1042 C   0  0  0  0  0  0  0  0  0  0  0  0
   -0.7419   -0.5874   -0.1152 C   0  0  0  0  0  0  0  0  0  0  0  0
   -0.6218   -1.8253   -0.5557 C   0  0  0  0  0  0  0  0  0  0  0  0
   -1.6387   -2.8157   -0.9018 C   0  0  0  0  0  0  0  0  0  0  0  0
   -3.1088   -2.6701   -0.7954 C   0  0  0  0  0  0  0  0  0  0  0  0
   -0.9847   -3.9176   -1.3200 C   0  0  0  0  0  0  0  0  0  0  0  0
    0.4316   -3.6519   -1.2471 C   0  0  0  0  0  0  0  0  0  0  0  0
    1.5744   -4.5462   -1.5979 C   0  0  0  0  0  0  0  0  0  0  0  0
    0.6439   -2.4226   -0.7974 N   0  0  0  0  0  4  0  0  0  0  0  0
    1.9402   -1.6891   -0.5380 B   0  0  0  0  0  4  0  0  0  0  0  0
    2.8103   -1.6957   -1.7127 F   0  0  0  0  0  0  0  0  0  0  0  0
    2.5968   -2.3862    0.5765 F   0  0  0  0  0  0  0  0  0  0  0  0
    1.6912   -0.2766   -0.0511 N   0  0  0  0  0  0  0  0  0  0  0  0
    2.6446    0.6495    0.2399 C   0  0  0  0  0  0  0  0  0  0  0  0
    4.1024    0.5017    0.1526 C   0  0  0  0  0  0  0  0  0  0  0  0
    4.9243    1.4764    0.4692 C   0  0  0  0  0  0  0  0  0  0  0  0
    6.3753    1.3578    0.3918 C   0  0  0  0  0  0  0  0  0  0  0  0
    7.3019    2.3246    0.7109 C   0  0  0  0  0  0  0  0  0  0  0  0
    8.5323    1.8247    0.5012 N   0  0  0  0  0  0  0  0  0  0  0  0
    8.4144    0.5496    0.0513 C   0  0  0  0  0  0  0  0  0  0  0  0
    7.1002    0.2883   -0.0070 N   0  0  0  0  0  0  0  0  0  0  0  0
    1.9913    1.7717    0.6353 C   0  0  0  0  0  0  0  0  0  0  0  0
    0.6149    1.5199    0.5821 C   0  0  0  0  0  0  0  0  0  0  0  0
   -0.4570    2.4964    0.9176 C   0  0  0  0  0  0  0  0  0  0  0  0
    0.4653    0.2293    0.1495 C   0  0  0  0  0  0  0  0  0  0  0  0
   -2.4678    0.2994    1.3831 C   0  0  0  0  0  0  0  0  0  0  0  0
   -3.7133    0.8394    1.6148 C   0  0  0  0  0  0  0  0  0  0  0  0
   -8.6242    2.7364   -0.8256 H   0  0  0  0  0  0  0  0  0  0  0  0
   -8.7132    1.8813    0.7512 H   0  0  0  0  0  0  0  0  0  0  0  0
   -7.9487    3.4798    0.7161 H   0  0  0  0  0  0  0  0  0  0  0  0
   -4.8183    1.0645   -1.4943 H   0  0  0  0  0  0  0  0  0  0  0  0
   -2.5773    0.0922   -1.9279 H   0  0  0  0  0  0  0  0  0  0  0  0
   -3.5933   -2.3060   -1.7006 H   0  0  0  0  0  0  0  0  0  0  0  0
   -3.4942   -3.7482   -0.7097 H   0  0  0  0  0  0  0  0  0  0  0  0
   -3.4517   -2.2289    0.1602 H   0  0  0  0  0  0  0  0  0  0  0  0
   -1.4609   -4.8232   -1.6462 H   0  0  0  0  0  0  0  0  0  0  0  0
    2.1886   -4.0599   -2.4027 H   0  0  0  0  0  0  0  0  0  0  0  0
    1.2291   -5.5235   -1.9580 H   0  0  0  0  0  0  0  0  0  0  0  0
    2.1709   -4.6844   -0.6877 H   0  0  0  0  0  0  0  0  0  0  0  0
    4.5540   -0.4366   -0.1836 H   0  0  0  0  0  0  0  0  0  0  0  0
    4.4919    2.4043    0.8006 H   0  0  0  0  0  0  0  0  0  0  0  0
    7.0884    3.3204    1.0702 H   0  0  0  0  0  0  0  0  0  0  0  0
    9.4147    2.3614    0.6686 H   0  0  0  0  0  0  0  0  0  0  0  0
    9.2674   -0.0707   -0.1916 H   0  0  0  0  0  0  0  0  0  0  0  0
    2.4172    2.7044    0.9408 H   0  0  0  0  0  0  0  0  0  0  0  0
    0.0467    3.5187    0.8125 H   0  0  0  0  0  0  0  0  0  0  0  0
   -1.2656    2.5486    0.1754 H   0  0  0  0  0  0  0  0  0  0  0  0
   -0.7651    2.4819    1.9724 H   0  0  0  0  0  0  0  0  0  0  0  0
   -1.8349    0.0989    2.2292 H   0  0  0  0  0  0  0  0  0  0  0  0
   -4.0600    1.0628    2.6314 H   0  0  0  0  0  0  0  0  0  0  0  0
  1  2  1  0
  2  3  1  0
  3  4  2  0
  3  5  1  0
  5  6  2  0
  6  7  1  0
  7  8  2  0
  8  9  1  0
  9 10  2  0
 10 11  1  0
 11 12  1  0
 11 13  2  0
 13 14  1  0
 14 15  1  0
 14 16  2  0
 16 17  1  0
 17 18  1  0
 17 19  1  0
 17 20  1  0
 20 21  1  0
 21 22  1  0
 22 23  2  0
 23 24  1  0
 24 25  2  0
 25 26  1  0
 26 27  1  0
 27 28  2  0
 21 29  2  0
 29 30  1  0
 30 31  1  0
 30 32  2  0
  8 33  1  0
 33 34  2  0
 34  5  1  0
 32  9  1  0
 16 10  1  0
 32 20  1  0
 28 24  1  0
  1 35  1  0
  1 36  1  0
  1 37  1  0
  6 38  1  0
  7 39  1  0
 12 40  1  0
 12 41  1  0
 12 42  1  0
 13 43  1  0
 15 44  1  0
 15 45  1  0
 15 46  1  0
 22 47  1  0
 23 48  1  0
 25 49  1  0
 26 50  1  0
 27 51  1  0
 29 52  1  0
 31 53  1  0
 31 54  1  0
 31 55  1  0
 33 56  1  0
 34 57  1  0
M  CHG  2  16   1  17  -1
M  END
