
     RDKit          3D

 50 52  0  0  0  0  0  0  0  0999 V2000
    5.0367   -2.9874   -2.5615 C   0  0  0  0  0  0  0  0  0  0  0  0
    4.8572   -2.5005   -1.2296 O   0  0  0  0  0  0  0  0  0  0  0  0
    3.8446   -1.5861   -0.9505 C   0  0  0  0  0  0  0  0  0  0  0  0
    2.9765   -1.0957   -1.9011 C   0  0  0  0  0  0  0  0  0  0  0  0
    1.9854   -0.1887   -1.5847 C   0  0  0  0  0  0  0  0  0  0  0  0
    1.8223    0.2676   -0.2942 C   0  0  0  0  0  0  0  0  0  0  0  0
    0.8139    1.2061    0.0517 N   0  0  0  0  0  0  0  0  0  0  0  0
    0.7684    2.5771   -0.3190 C   0  0  0  0  0  0  0  0  0  0  0  0
    1.6050    3.1770   -1.0540 O   0  0  0  0  0  0  0  0  0  0  0  0
   -0.3955    3.2168    0.2723 C   0  0  0  0  0  0  0  0  0  0  0  0
   -0.8448    4.5414    0.2057 C   0  0  0  0  0  0  0  0  0  0  0  0
   -2.0043    4.8257    0.9179 C   0  0  0  0  0  0  0  0  0  0  0  0
   -2.6792    3.8719    1.6484 C   0  0  0  0  0  0  0  0  0  0  0  0
   -2.1897    2.5856    1.6761 C   0  0  0  0  0  0  0  0  0  0  0  0
   -1.0507    2.2573    0.9892 C   0  0  0  0  0  0  0  0  0  0  0  0
   -0.3422    0.9477    0.8441 C   0  0  0  0  0  0  0  0  0  0  0  0
   -1.3170    0.0484    0.1661 C   0  0  0  0  0  0  0  0  0  0  0  0
   -1.0672   -0.3294   -1.0034 O   0  0  0  0  0  0  0  0  0  0  0  0
   -2.4754   -0.3906    0.7516 O   0  0  0  0  0  0  0  0  0  0  0  0
   -3.4165   -1.2370    0.1312 C   0  0  0  0  0  0  0  0  0  0  0  0
   -4.5292   -1.4786    1.1307 C   0  0  0  0  0  0  0  0  0  0  0  0
   -4.0648   -0.5701   -1.0668 C   0  0  0  0  0  0  0  0  0  0  0  0
   -2.8834   -2.5525   -0.3216 C   0  0  0  0  0  0  0  0  0  0  0  0
    2.7058   -0.2381    0.6482 C   0  0  0  0  0  0  0  0  0  0  0  0
    3.7019   -1.1417    0.3631 C   0  0  0  0  0  0  0  0  0  0  0  0
    4.5456   -1.5995    1.3649 O   0  0  0  0  0  0  0  0  0  0  0  0
    4.3495   -1.1120    2.6773 C   0  0  0  0  0  0  0  0  0  0  0  0
    5.6108   -3.9120   -2.5995 H   0  0  0  0  0  0  0  0  0  0  0  0
    5.5082   -2.2572   -3.2248 H   0  0  0  0  0  0  0  0  0  0  0  0
    3.9929   -3.2502   -2.9001 H   0  0  0  0  0  0  0  0  0  0  0  0
    3.0726   -1.4315   -2.9273 H   0  0  0  0  0  0  0  0  0  0  0  0
    1.3066    0.1914   -2.3414 H   0  0  0  0  0  0  0  0  0  0  0  0
   -0.3114    5.2911   -0.3715 H   0  0  0  0  0  0  0  0  0  0  0  0
   -2.3891    5.8223    0.8968 H   0  0  0  0  0  0  0  0  0  0  0  0
   -3.5875    4.1201    2.2002 H   0  0  0  0  0  0  0  0  0  0  0  0
   -2.7100    1.8252    2.2440 H   0  0  0  0  0  0  0  0  0  0  0  0
   -0.0843    0.6209    1.8555 H   0  0  0  0  0  0  0  0  0  0  0  0
   -5.1480   -0.5515    1.2945 H   0  0  0  0  0  0  0  0  0  0  0  0
   -4.1369   -1.7343    2.1376 H   0  0  0  0  0  0  0  0  0  0  0  0
   -5.1763   -2.3349    0.8165 H   0  0  0  0  0  0  0  0  0  0  0  0
   -3.4929   -0.7918   -1.9855 H   0  0  0  0  0  0  0  0  0  0  0  0
   -5.0868   -0.9275   -1.1957 H   0  0  0  0  0  0  0  0  0  0  0  0
   -4.1016    0.5335   -0.8710 H   0  0  0  0  0  0  0  0  0  0  0  0
   -3.7819   -3.1905   -0.5687 H   0  0  0  0  0  0  0  0  0  0  0  0
   -2.3605   -3.0806    0.4839 H   0  0  0  0  0  0  0  0  0  0  0  0
   -2.3117   -2.4976   -1.2731 H   0  0  0  0  0  0  0  0  0  0  0  0
    2.6120    0.0990    1.6868 H   0  0  0  0  0  0  0  0  0  0  0  0
    3.3257   -1.4519    2.9830 H   0  0  0  0  0  0  0  0  0  0  0  0
    4.4120   -0.0010    2.7097 H   0  0  0  0  0  0  0  0  0  0  0  0
    5.0848   -1.6059    3.3265 H   0  0  0  0  0  0  0  0  0  0  0  0
  1  2  1  0
  2  3  1  0
  3  4  2  0
  4  5  1  0
  5  6  2  0
  6  7  1  0
  7  8  1  0
  8  9  2  0
  8 10  1  0
 10 11  2  0
 11 12  1  0
 12 13  2  0
 13 14  1  0
 14 15  2  0
 15 16  1  0
 16 17  1  0
 17 18  2  0
 17 19  1  0
 19 20  1  0
 20 21  1  0
 20 22  1  0
 20 23  1  0
  6 24  1  0
 24 25  2  0
 25 26  1  0
 26 27  1  0
 25  3  1  0
 16  7  1  0
 15 10  1  0
  1 28  1  0
  1 29  1  0
  1 30  1  0
  4 31  1  0
  5 32  1  0
 11 33  1  0
 12 34  1  0
 13 35  1  0
 14 36  1  0
 16 37  1  0
 21 38  1  0
 21 39  1  0
 21 40  1  0
 22 41  1  0
 22 42  1  0
 22 43  1  0
 23 44  1  0
 23 45  1  0
 23 46  1  0
 24 47  1  0
 27 48  1  0
 27 49  1  0
 27 50  1  0
M  END
