
     RDKit          3D

 35 37  0  0  0  0  0  0  0  0999 V2000
   -3.1214    1.8649    0.8042 C   0  0  0  0  0  0  0  0  0  0  0  0
   -3.4673    0.4857    0.5732 N   0  0  0  0  0  0  0  0  0  0  0  0
   -4.8377    0.0979    0.3604 C   0  0  0  0  0  0  0  0  0  0  0  0
   -2.4619   -0.5425    0.5469 C   0  0  0  0  0  0  0  0  0  0  0  0
   -2.7877   -1.8291    0.3347 N   0  0  0  0  0  0  0  0  0  0  0  0
   -1.8919   -2.8259    0.2994 C   0  0  0  0  0  0  0  0  0  0  0  0
   -0.5539   -2.5080    0.4935 C   0  0  0  0  0  0  0  0  0  0  0  0
    0.5617   -3.2475    0.5166 N   0  0  0  0  0  0  0  0  0  0  0  0
    1.6209   -2.4454    0.7442 C   0  0  0  0  0  0  0  0  0  0  0  0
    3.0009   -2.7769    0.8512 C   0  0  0  0  0  0  0  0  0  0  0  0
    4.1486   -3.0330    0.9319 N   0  0  0  0  0  0  0  0  0  0  0  0
    1.1386   -1.1890    0.8628 N   0  0  0  0  0  0  0  0  0  0  0  0
    1.8780    0.0347    1.1120 C   0  0  0  0  0  0  0  0  0  0  0  0
    2.3143    0.7034   -0.1048 C   0  0  0  0  0  0  0  0  0  0  0  0
    1.4981    1.6061   -0.7473 C   0  0  0  0  0  0  0  0  0  0  0  0
    1.9250    2.2483   -1.9171 C   0  0  0  0  0  0  0  0  0  0  0  0
    3.1797    1.9694   -2.4277 C   0  0  0  0  0  0  0  0  0  0  0  0
    3.9852    1.0752   -1.7891 C   0  0  0  0  0  0  0  0  0  0  0  0
    3.5480    0.4577   -0.6452 C   0  0  0  0  0  0  0  0  0  0  0  0
   -0.2032   -1.1923    0.7126 C   0  0  0  0  0  0  0  0  0  0  0  0
   -1.1623   -0.2496    0.7334 N   0  0  0  0  0  0  0  0  0  0  0  0
   -2.3295    2.1937    0.0726 H   0  0  0  0  0  0  0  0  0  0  0  0
   -2.7738    1.9825    1.8515 H   0  0  0  0  0  0  0  0  0  0  0  0
   -3.9910    2.5252    0.6117 H   0  0  0  0  0  0  0  0  0  0  0  0
   -5.4463    0.3295    1.2385 H   0  0  0  0  0  0  0  0  0  0  0  0
   -5.2500    0.7131   -0.4917 H   0  0  0  0  0  0  0  0  0  0  0  0
   -4.9085   -0.9648    0.0417 H   0  0  0  0  0  0  0  0  0  0  0  0
   -2.1686   -3.8493    0.1282 H   0  0  0  0  0  0  0  0  0  0  0  0
    2.7945   -0.2270    1.7197 H   0  0  0  0  0  0  0  0  0  0  0  0
    1.2723    0.6544    1.8013 H   0  0  0  0  0  0  0  0  0  0  0  0
    0.5019    1.8689   -0.3976 H   0  0  0  0  0  0  0  0  0  0  0  0
    1.3076    2.9510   -2.4303 H   0  0  0  0  0  0  0  0  0  0  0  0
    3.5089    2.4758   -3.3436 H   0  0  0  0  0  0  0  0  0  0  0  0
    4.9654    0.8861   -2.2267 H   0  0  0  0  0  0  0  0  0  0  0  0
    4.2054   -0.2434   -0.1626 H   0  0  0  0  0  0  0  0  0  0  0  0
  1  2  1  0
  2  3  1  0
  2  4  1  0
  4  5  2  0
  5  6  1  0
  6  7  2  0
  7  8  1  0
  8  9  2  0
  9 10  1  0
 10 11  3  0
  9 12  1  0
 12 13  1  0
 13 14  1  0
 14 15  2  0
 15 16  1  0
 16 17  2  0
 17 18  1  0
 18 19  2  0
 12 20  1  0
 20 21  2  0
 21  4  1  0
 20  7  1  0
 19 14  1  0
  1 22  1  0
  1 23  1  0
  1 24  1  0
  3 25  1  0
  3 26  1  0
  3 27  1  0
  6 28  1  0
 13 29  1  0
 13 30  1  0
 15 31  1  0
 16 32  1  0
 17 33  1  0
 18 34  1  0
 19 35  1  0
M  END
