
     RDKit          3D

 86 91  0  0  0  0  0  0  0  0999 V2000
   -9.2197   -3.0594   -2.3909 C   0  0  0  0  0  0  0  0  0  0  0  0
   -8.4597   -3.6533   -1.2317 C   0  0  0  0  0  0  0  0  0  0  0  0
   -9.2142   -3.5462    0.0820 C   0  0  0  0  0  0  0  0  0  0  0  0
   -8.2177   -5.1164   -1.4862 C   0  0  0  0  0  0  0  0  0  0  0  0
   -7.1692   -2.9461   -1.1394 C   0  0  0  0  0  0  0  0  0  0  0  0
   -5.9736   -3.5929   -1.4799 C   0  0  0  0  0  0  0  0  0  0  0  0
   -4.7876   -2.9182   -1.3575 C   0  0  0  0  0  0  0  0  0  0  0  0
   -4.7240   -1.5951   -0.8904 C   0  0  0  0  0  0  0  0  0  0  0  0
   -5.9342   -0.9693   -0.5535 C   0  0  0  0  0  0  0  0  0  0  0  0
   -7.1259   -1.6559   -0.6871 C   0  0  0  0  0  0  0  0  0  0  0  0
   -5.6617    0.3139   -0.0997 C   0  0  0  0  0  0  0  0  0  0  0  0
   -6.3806    1.3860    0.3756 C   0  0  0  0  0  0  0  0  0  0  0  0
   -5.7511    2.5611    0.7641 C   0  0  0  0  0  0  0  0  0  0  0  0
   -6.4715    3.7167    1.3251 C   0  0  0  0  0  0  0  0  0  0  0  0
   -6.6204    3.5177    2.8312 C   0  0  0  0  0  0  0  0  0  0  0  0
   -7.8709    3.8616    0.7677 C   0  0  0  0  0  0  0  0  0  0  0  0
   -5.7656    5.0267    1.1411 C   0  0  0  0  0  0  0  0  0  0  0  0
   -4.3725    2.6634    0.6739 C   0  0  0  0  0  0  0  0  0  0  0  0
   -3.6506    1.5743    0.1879 C   0  0  0  0  0  0  0  0  0  0  0  0
   -4.2990    0.4323   -0.1897 C   0  0  0  0  0  0  0  0  0  0  0  0
   -3.7705   -0.7553   -0.6750 N   0  0  0  0  0  0  0  0  0  0  0  0
   -2.3582   -0.9214   -0.8038 C   0  0  0  0  0  0  0  0  0  0  0  0
   -1.6797   -0.4159   -1.8563 C   0  0  0  0  0  0  0  0  0  0  0  0
   -0.3013   -0.4034   -1.8004 C   0  0  0  0  0  0  0  0  0  0  0  0
    0.3841   -0.8964   -0.7013 C   0  0  0  0  0  0  0  0  0  0  0  0
    1.7597   -0.6137   -0.5074 C   0  0  0  0  0  0  0  0  0  0  0  0
    2.9237   -0.3941   -0.3379 C   0  0  0  0  0  0  0  0  0  0  0  0
    4.3141   -0.1518   -0.1414 C   0  0  0  0  0  0  0  0  0  0  0  0
    4.9414   -0.6438    0.9764 C   0  0  0  0  0  0  0  0  0  0  0  0
    6.2873   -0.4222    1.1797 C   0  0  0  0  0  0  0  0  0  0  0  0
    7.0297    0.3046    0.2719 C   0  0  0  0  0  0  0  0  0  0  0  0
    8.4279    0.5756    0.5141 C   0  0  0  0  0  0  0  0  0  0  0  0
    9.5625    0.8101    0.7025 C   0  0  0  0  0  0  0  0  0  0  0  0
   10.9743    1.1005    0.9478 C   0  0  0  0  0  0  0  0  0  0  0  0
   11.4630    2.1796    0.1993 C   0  0  0  0  0  0  0  0  0  0  0  0
   12.7888    2.2406   -0.0635 C   0  0  0  0  0  0  0  0  0  0  0  0
   13.7019    1.2660    0.3761 C   0  0  0  0  0  0  0  0  0  0  0  0
   15.0138    1.1762   -0.3116 C   0  0  0  0  0  0  0  0  0  0  0  0
   15.8821    0.3254   -0.3163 C   0  0  0  0  0  0  0  0  0  0  0  0
   16.0012   -1.0526    0.4394 C   0  0  0  0  0  0  0  0  0  0  0  0
   16.0615   -1.9471    0.9333 N   0  0  0  0  0  0  0  0  0  0  0  0
   16.9036    0.1886   -1.3479 C   0  0  0  0  0  0  0  0  0  0  0  0
   17.7820    0.0922   -2.2406 N   0  0  0  0  0  0  0  0  0  0  0  0
   13.2143    0.2338    1.1219 C   0  0  0  0  0  0  0  0  0  0  0  0
   11.8374    0.1646    1.4034 C   0  0  0  0  0  0  0  0  0  0  0  0
    6.4050    0.7913   -0.8462 C   0  0  0  0  0  0  0  0  0  0  0  0
    5.0632    0.5802   -1.0748 C   0  0  0  0  0  0  0  0  0  0  0  0
   -0.3471   -1.4087    0.3314 C   0  0  0  0  0  0  0  0  0  0  0  0
   -1.7282   -1.4310    0.2978 C   0  0  0  0  0  0  0  0  0  0  0  0
  -10.0105   -3.7843   -2.6646 H   0  0  0  0  0  0  0  0  0  0  0  0
   -8.4938   -2.9228   -3.2509 H   0  0  0  0  0  0  0  0  0  0  0  0
   -9.7159   -2.1087   -2.1107 H   0  0  0  0  0  0  0  0  0  0  0  0
  -10.3190   -3.5677   -0.0966 H   0  0  0  0  0  0  0  0  0  0  0  0
   -8.9308   -4.4145    0.6973 H   0  0  0  0  0  0  0  0  0  0  0  0
   -8.9762   -2.5641    0.5389 H   0  0  0  0  0  0  0  0  0  0  0  0
   -7.4843   -5.4836   -0.7521 H   0  0  0  0  0  0  0  0  0  0  0  0
   -7.8407   -5.2753   -2.5007 H   0  0  0  0  0  0  0  0  0  0  0  0
   -9.1613   -5.6587   -1.3324 H   0  0  0  0  0  0  0  0  0  0  0  0
   -6.0136   -4.6073   -1.8387 H   0  0  0  0  0  0  0  0  0  0  0  0
   -3.8319   -3.4168   -1.6398 H   0  0  0  0  0  0  0  0  0  0  0  0
   -8.0308   -1.1361   -0.4078 H   0  0  0  0  0  0  0  0  0  0  0  0
   -7.4468    1.2911    0.4351 H   0  0  0  0  0  0  0  0  0  0  0  0
   -6.5219    2.4199    3.0120 H   0  0  0  0  0  0  0  0  0  0  0  0
   -7.6426    3.8084    3.1550 H   0  0  0  0  0  0  0  0  0  0  0  0
   -5.8342    4.0843    3.3439 H   0  0  0  0  0  0  0  0  0  0  0  0
   -8.5361    3.0237    1.0157 H   0  0  0  0  0  0  0  0  0  0  0  0
   -7.8357    4.0871   -0.3272 H   0  0  0  0  0  0  0  0  0  0  0  0
   -8.3083    4.7794    1.2681 H   0  0  0  0  0  0  0  0  0  0  0  0
   -5.1822    5.0979    0.2227 H   0  0  0  0  0  0  0  0  0  0  0  0
   -5.0762    5.1666    2.0246 H   0  0  0  0  0  0  0  0  0  0  0  0
   -6.4919    5.8685    1.1837 H   0  0  0  0  0  0  0  0  0  0  0  0
   -3.8358    3.5560    0.9707 H   0  0  0  0  0  0  0  0  0  0  0  0
   -2.5865    1.6697    0.1268 H   0  0  0  0  0  0  0  0  0  0  0  0
   -2.1636   -0.0290   -2.7308 H   0  0  0  0  0  0  0  0  0  0  0  0
    0.3166    0.0023   -2.6136 H   0  0  0  0  0  0  0  0  0  0  0  0
    4.3719   -1.2061    1.6956 H   0  0  0  0  0  0  0  0  0  0  0  0
    6.7567   -0.8062    2.0747 H   0  0  0  0  0  0  0  0  0  0  0  0
   10.7516    2.9153   -0.1299 H   0  0  0  0  0  0  0  0  0  0  0  0
   13.2048    3.0793   -0.6448 H   0  0  0  0  0  0  0  0  0  0  0  0
   15.1995    2.1139   -0.9496 H   0  0  0  0  0  0  0  0  0  0  0  0
   13.8547   -0.5287    1.5173 H   0  0  0  0  0  0  0  0  0  0  0  0
   11.4715   -0.6709    1.9932 H   0  0  0  0  0  0  0  0  0  0  0  0
    7.0058    1.3619   -1.5543 H   0  0  0  0  0  0  0  0  0  0  0  0
    4.5583    0.9581   -1.9577 H   0  0  0  0  0  0  0  0  0  0  0  0
    0.1721   -1.8077    1.2022 H   0  0  0  0  0  0  0  0  0  0  0  0
   -2.2606   -1.8677    1.1448 H   0  0  0  0  0  0  0  0  0  0  0  0
  1  2  1  0
  2  3  1  0
  2  4  1  0
  2  5  1  0
  5  6  2  0
  6  7  1  0
  7  8  2  0
  8  9  1  0
  9 10  2  0
  9 11  1  0
 11 12  2  0
 12 13  1  0
 13 14  1  0
 14 15  1  0
 14 16  1  0
 14 17  1  0
 13 18  2  0
 18 19  1  0
 19 20  2  0
 20 21  1  0
 21 22  1  0
 22 23  2  0
 23 24  1  0
 24 25  2  0
 25 26  1  0
 26 27  3  0
 27 28  1  0
 28 29  2  0
 29 30  1  0
 30 31  2  0
 31 32  1  0
 32 33  3  0
 33 34  1  0
 34 35  2  0
 35 36  1  0
 36 37  2  0
 37 38  1  0
 38 39  2  3
 39 40  1  0
 40 41  3  0
 39 42  1  0
 42 43  3  0
 37 44  1  0
 44 45  2  0
 31 46  1  0
 46 47  2  0
 25 48  1  0
 48 49  2  0
 10  5  1  0
 20 11  1  0
 49 22  1  0
 21  8  1  0
 47 28  1  0
 45 34  1  0
  1 50  1  0
  1 51  1  0
  1 52  1  0
  3 53  1  0
  3 54  1  0
  3 55  1  0
  4 56  1  0
  4 57  1  0
  4 58  1  0
  6 59  1  0
  7 60  1  0
 10 61  1  0
 12 62  1  0
 15 63  1  0
 15 64  1  0
 15 65  1  0
 16 66  1  0
 16 67  1  0
 16 68  1  0
 17 69  1  0
 17 70  1  0
 17 71  1  0
 18 72  1  0
 19 73  1  0
 23 74  1  0
 24 75  1  0
 29 76  1  0
 30 77  1  0
 35 78  1  0
 36 79  1  0
 38 80  1  0
 44 81  1  0
 45 82  1  0
 46 83  1  0
 47 84  1  0
 48 85  1  0
 49 86  1  0
M  END
