
     RDKit          3D

 34 35  0  0  0  0  0  0  0  0999 V2000
   -4.6072    3.7312   -0.5446 C   0  0  0  0  0  0  0  0  0  0  0  0
   -4.2231    2.3691   -0.5832 O   0  0  0  0  0  0  0  0  0  0  0  0
   -5.1471    1.3266   -0.8217 C   0  0  0  0  0  0  0  0  0  0  0  0
   -6.3166    1.7486   -0.9937 O   0  0  0  0  0  0  0  0  0  0  0  0
   -4.7321   -0.0703   -0.8562 C   0  0  0  0  0  0  0  0  0  0  0  0
   -5.6160   -1.1432   -1.0672 C   0  0  0  0  0  0  0  0  0  0  0  0
   -6.3629   -2.0642   -1.2626 N   0  0  0  0  0  0  0  0  0  0  0  0
   -3.4247   -0.2640   -0.6539 C   0  0  0  0  0  0  0  0  0  0  0  0
   -2.7297   -1.4388   -0.6221 C   0  0  0  0  0  0  0  0  0  0  0  0
   -1.4016   -1.3765   -0.3940 C   0  0  0  0  0  0  0  0  0  0  0  0
   -0.8457   -0.1463   -0.2020 C   0  0  0  0  0  0  0  0  0  0  0  0
    0.4241    0.0987    0.0555 C   0  0  0  0  0  0  0  0  0  0  0  0
    0.9722    1.3298    0.2459 C   0  0  0  0  0  0  0  0  0  0  0  0
    2.3016    1.3519    0.5380 C   0  0  0  0  0  0  0  0  0  0  0  0
    2.9944    0.2688    0.6267 C   0  0  0  0  0  0  0  0  0  0  0  0
    4.2275   -0.1694    0.9875 C   0  0  0  0  0  0  0  0  0  0  0  0
    5.0812    0.9454    1.4307 C   0  0  0  0  0  0  0  0  0  0  0  0
    5.7411    1.8245    1.7964 N   0  0  0  0  0  0  0  0  0  0  0  0
    4.6089   -1.5121    0.9395 C   0  0  0  0  0  0  0  0  0  0  0  0
    3.7891   -2.4400    0.5492 O   0  0  0  0  0  0  0  0  0  0  0  0
    5.8418   -2.0070    1.2894 O   0  0  0  0  0  0  0  0  0  0  0  0
    6.1759   -3.3841    1.2286 C   0  0  0  0  0  0  0  0  0  0  0  0
    1.7398   -0.9513    0.2754 S   0  0  0  0  0  0  0  0  0  0  0  0
   -2.1777    0.9024   -0.3484 S   0  0  0  0  0  0  0  0  0  0  0  0
   -5.6761    3.7774   -0.8609 H   0  0  0  0  0  0  0  0  0  0  0  0
   -4.5406    4.1697    0.4526 H   0  0  0  0  0  0  0  0  0  0  0  0
   -4.0654    4.3375   -1.2922 H   0  0  0  0  0  0  0  0  0  0  0  0
   -3.2772   -2.3964   -0.7851 H   0  0  0  0  0  0  0  0  0  0  0  0
   -0.7670   -2.3112   -0.3661 H   0  0  0  0  0  0  0  0  0  0  0  0
    0.3590    2.2543    0.1721 H   0  0  0  0  0  0  0  0  0  0  0  0
    2.8078    2.3759    0.7065 H   0  0  0  0  0  0  0  0  0  0  0  0
    7.2542   -3.4900    1.5113 H   0  0  0  0  0  0  0  0  0  0  0  0
    5.5487   -3.8814    2.0075 H   0  0  0  0  0  0  0  0  0  0  0  0
    6.0435   -3.7653    0.2172 H   0  0  0  0  0  0  0  0  0  0  0  0
  1  2  1  0
  2  3  1  0
  3  4  2  0
  3  5  1  0
  5  6  1  0
  6  7  3  0
  5  8  2  0
  8  9  1  0
  9 10  2  0
 10 11  1  0
 11 12  2  0
 12 13  1  0
 13 14  2  0
 14 15  1  0
 15 16  2  0
 16 17  1  0
 17 18  3  0
 16 19  1  0
 19 20  2  0
 19 21  1  0
 21 22  1  0
 15 23  1  0
 11 24  1  0
 24  8  1  0
 23 12  1  0
  1 25  1  0
  1 26  1  0
  1 27  1  0
  9 28  1  0
 10 29  1  0
 13 30  1  0
 14 31  1  0
 22 32  1  0
 22 33  1  0
 22 34  1  0
M  END
