
     RDKit          3D

 43 47  0  0  0  0  0  0  0  0999 V2000
   -0.0798   -0.3530   -0.6127 C   0  0  0  0  0  0  0  0  0  0  0  0
    1.0236    0.0271   -0.0193 C   0  0  0  0  0  0  0  0  0  0  0  0
    2.3509   -0.2197   -0.5737 C   0  0  0  0  0  0  0  0  0  0  0  0
    2.4911   -0.8935   -1.7466 C   0  0  0  0  0  0  0  0  0  0  0  0
    3.7654   -1.1287   -2.2819 C   0  0  0  0  0  0  0  0  0  0  0  0
    4.8280   -0.6739   -1.6090 N   0  0  0  0  0  0  0  0  0  0  0  0
    4.7179   -0.0086   -0.4538 C   0  0  0  0  0  0  0  0  0  0  0  0
    5.8349    0.4558    0.2274 C   0  0  0  0  0  0  0  0  0  0  0  0
    5.7429    1.1409    1.4118 C   0  0  0  0  0  0  0  0  0  0  0  0
    4.5127    1.3903    1.9665 C   0  0  0  0  0  0  0  0  0  0  0  0
    3.3910    0.9166    1.2700 C   0  0  0  0  0  0  0  0  0  0  0  0
    3.4807    0.2332    0.0890 C   0  0  0  0  0  0  0  0  0  0  0  0
   -1.4531   -0.1741   -0.1978 C   0  0  0  0  0  0  0  0  0  0  0  0
   -2.3432   -1.2113   -0.5343 C   0  0  0  0  0  0  0  0  0  0  0  0
   -1.8908   -2.3377   -1.1581 C   0  0  0  0  0  0  0  0  0  0  0  0
   -2.7676   -3.3808   -1.4888 C   0  0  0  0  0  0  0  0  0  0  0  0
   -4.1102   -3.3234   -1.2050 C   0  0  0  0  0  0  0  0  0  0  0  0
   -4.5515   -2.1853   -0.5769 C   0  0  0  0  0  0  0  0  0  0  0  0
   -3.6790   -1.1408   -0.2448 C   0  0  0  0  0  0  0  0  0  0  0  0
   -4.1898   -0.0366    0.3918 C   0  0  0  0  0  0  0  0  0  0  0  0
   -3.3458    1.0028    0.7348 C   0  0  0  0  0  0  0  0  0  0  0  0
   -3.9200    2.1044    1.3292 C   0  0  0  0  0  0  0  0  0  0  0  0
   -3.1101    3.1725    1.6321 C   0  0  0  0  0  0  0  0  0  0  0  0
   -1.7727    3.1243    1.3420 C   0  0  0  0  0  0  0  0  0  0  0  0
   -1.2068    1.9948    0.7384 C   0  0  0  0  0  0  0  0  0  0  0  0
   -1.9864    0.9208    0.4331 C   0  0  0  0  0  0  0  0  0  0  0  0
    0.0909   -0.8634   -1.6030 H   0  0  0  0  0  0  0  0  0  0  0  0
    0.8908    0.4679    0.9539 H   0  0  0  0  0  0  0  0  0  0  0  0
    1.6991   -1.3008   -2.3618 H   0  0  0  0  0  0  0  0  0  0  0  0
    3.8896   -1.6689   -3.2238 H   0  0  0  0  0  0  0  0  0  0  0  0
    6.7967    0.2398   -0.2425 H   0  0  0  0  0  0  0  0  0  0  0  0
    6.6779    1.4601    1.8629 H   0  0  0  0  0  0  0  0  0  0  0  0
    4.4492    1.9265    2.8926 H   0  0  0  0  0  0  0  0  0  0  0  0
    2.4612    1.1313    1.7305 H   0  0  0  0  0  0  0  0  0  0  0  0
   -0.8403   -2.4772   -1.4106 H   0  0  0  0  0  0  0  0  0  0  0  0
   -2.3701   -4.2577   -1.9835 H   0  0  0  0  0  0  0  0  0  0  0  0
   -4.7855   -4.1310   -1.4619 H   0  0  0  0  0  0  0  0  0  0  0  0
   -5.6142   -2.1020   -0.3339 H   0  0  0  0  0  0  0  0  0  0  0  0
   -5.2471    0.0003    0.6144 H   0  0  0  0  0  0  0  0  0  0  0  0
   -4.9734    2.0989    1.5376 H   0  0  0  0  0  0  0  0  0  0  0  0
   -3.5575    4.0529    2.1062 H   0  0  0  0  0  0  0  0  0  0  0  0
   -1.1299    3.9667    1.5777 H   0  0  0  0  0  0  0  0  0  0  0  0
   -0.1697    2.0404    0.4817 H   0  0  0  0  0  0  0  0  0  0  0  0
  1  2  2  0
  2  3  1  0
  3  4  2  0
  4  5  1  0
  5  6  2  0
  6  7  1  0
  7  8  2  0
  8  9  1  0
  9 10  2  0
 10 11  1  0
 11 12  2  0
  1 13  1  0
 13 14  1  0
 14 15  2  0
 15 16  1  0
 16 17  2  0
 17 18  1  0
 18 19  2  0
 19 20  1  0
 20 21  2  0
 21 22  1  0
 22 23  2  0
 23 24  1  0
 24 25  2  0
 25 26  1  0
 12  3  1  0
 26 13  2  0
 12  7  1  0
 19 14  1  0
 26 21  1  0
  1 27  1  0
  2 28  1  0
  4 29  1  0
  5 30  1  0
  8 31  1  0
  9 32  1  0
 10 33  1  0
 11 34  1  0
 15 35  1  0
 16 36  1  0
 17 37  1  0
 18 38  1  0
 20 39  1  0
 22 40  1  0
 23 41  1  0
 24 42  1  0
 25 43  1  0
M  END
