
     RDKit          3D

 76 82  0  0  0  0  0  0  0  0999 V2000
   -8.9904    0.4749    1.0721 C   0  0  0  0  0  0  0  0  0  0  0  0
   -8.0364   -0.5504    0.4143 C   0  0  0  0  0  0  0  0  0  0  0  0
   -7.2669   -1.2836    1.4622 C   0  0  0  0  0  0  0  0  0  0  0  0
   -6.4007   -2.3422    1.0007 C   0  0  0  0  0  0  0  0  0  0  0  0
   -5.2590   -2.2860    0.1063 C   0  0  0  0  0  0  0  0  0  0  0  0
   -5.2126   -1.9244   -1.2724 C   0  0  0  0  0  0  0  0  0  0  0  0
   -5.4849   -0.7188   -2.0055 C   0  0  0  0  0  0  0  0  0  0  0  0
   -4.7723    0.5507   -1.8898 C   0  0  0  0  0  0  0  0  0  0  0  0
   -4.7258    1.4012   -0.7213 C   0  0  0  0  0  0  0  0  0  0  0  0
   -4.1666    0.9371    0.5740 C   0  0  0  0  0  0  0  0  0  0  0  0
   -2.7169    0.4717    0.4907 C   0  0  0  0  0  0  0  0  0  0  0  0
   -1.8936    1.6137    0.0204 C   0  0  0  0  0  0  0  0  0  0  0  0
   -0.4888    1.3205   -0.1020 N   0  0  0  0  0  0  0  0  0  0  0  0
    0.1381    0.8247   -1.2643 C   0  0  0  0  0  0  0  0  0  0  0  0
   -0.5443    0.6155   -2.2742 O   0  0  0  0  0  0  0  0  0  0  0  0
    1.5879    0.5629   -1.2645 C   0  0  0  0  0  0  0  0  0  0  0  0
    2.2025    0.0811   -2.3908 C   0  0  0  0  0  0  0  0  0  0  0  0
    3.5619   -0.1671   -2.3993 C   0  0  0  0  0  0  0  0  0  0  0  0
    4.3125    0.0688   -1.2710 C   0  0  0  0  0  0  0  0  0  0  0  0
    5.6896   -0.1826   -1.2798 C   0  0  0  0  0  0  0  0  0  0  0  0
    6.3009   -0.6659   -2.4127 C   0  0  0  0  0  0  0  0  0  0  0  0
    7.6592   -0.9203   -2.4409 C   0  0  0  0  0  0  0  0  0  0  0  0
    8.4101   -0.6832   -1.3090 C   0  0  0  0  0  0  0  0  0  0  0  0
    7.7971   -0.1999   -0.1770 C   0  0  0  0  0  0  0  0  0  0  0  0
    8.5405    0.0410    0.9624 C   0  0  0  0  0  0  0  0  0  0  0  0
    7.9277    0.5234    2.0917 C   0  0  0  0  0  0  0  0  0  0  0  0
    6.5588    0.7848    2.1355 C   0  0  0  0  0  0  0  0  0  0  0  0
    5.8129    0.5554    1.0298 C   0  0  0  0  0  0  0  0  0  0  0  0
    4.4539    0.8065    1.0473 C   0  0  0  0  0  0  0  0  0  0  0  0
    3.8470    1.2909    2.1860 C   0  0  0  0  0  0  0  0  0  0  0  0
    2.4914    1.5233    2.1484 C   0  0  0  0  0  0  0  0  0  0  0  0
    1.7595    1.2804    1.0091 C   0  0  0  0  0  0  0  0  0  0  0  0
    2.3521    0.7943   -0.1426 C   0  0  0  0  0  0  0  0  0  0  0  0
    3.7126    0.5598   -0.1086 C   0  0  0  0  0  0  0  0  0  0  0  0
    0.3332    1.5443    1.0284 C   0  0  0  0  0  0  0  0  0  0  0  0
   -0.1826    1.9944    2.1129 O   0  0  0  0  0  0  0  0  0  0  0  0
    6.4229    0.0670   -0.1195 C   0  0  0  0  0  0  0  0  0  0  0  0
    9.9939   -0.2181    0.9720 C   0  0  0  0  0  0  0  0  0  0  0  0
   10.6526    0.0035    2.0063 O   0  0  0  0  0  0  0  0  0  0  0  0
   10.6427   -0.7171   -0.1882 N   0  0  0  0  0  0  0  0  0  0  0  0
    9.8624   -0.9568   -1.3441 C   0  0  0  0  0  0  0  0  0  0  0  0
   10.3746   -1.4040   -2.4217 O   0  0  0  0  0  0  0  0  0  0  0  0
   -9.2764    1.1731    0.2745 H   0  0  0  0  0  0  0  0  0  0  0  0
   -9.8870   -0.0467    1.4586 H   0  0  0  0  0  0  0  0  0  0  0  0
   -8.4086    0.9913    1.8339 H   0  0  0  0  0  0  0  0  0  0  0  0
   -8.5205   -1.1602   -0.3390 H   0  0  0  0  0  0  0  0  0  0  0  0
   -7.2947    0.1267   -0.0840 H   0  0  0  0  0  0  0  0  0  0  0  0
   -8.0950   -1.6935    2.1667 H   0  0  0  0  0  0  0  0  0  0  0  0
   -6.7578   -0.5627    2.1703 H   0  0  0  0  0  0  0  0  0  0  0  0
   -7.0700   -3.2730    0.6745 H   0  0  0  0  0  0  0  0  0  0  0  0
   -5.9923   -2.8473    1.9901 H   0  0  0  0  0  0  0  0  0  0  0  0
   -4.3224   -1.8943    0.6825 H   0  0  0  0  0  0  0  0  0  0  0  0
   -4.8576   -3.4364    0.1036 H   0  0  0  0  0  0  0  0  0  0  0  0
   -5.7519   -2.8194   -1.8474 H   0  0  0  0  0  0  0  0  0  0  0  0
   -4.1176   -2.2486   -1.6205 H   0  0  0  0  0  0  0  0  0  0  0  0
   -6.5969   -0.4620   -2.0926 H   0  0  0  0  0  0  0  0  0  0  0  0
   -5.3374   -1.0541   -3.1488 H   0  0  0  0  0  0  0  0  0  0  0  0
   -5.2308    1.2194   -2.7323 H   0  0  0  0  0  0  0  0  0  0  0  0
   -3.7016    0.4328   -2.3479 H   0  0  0  0  0  0  0  0  0  0  0  0
   -5.7745    1.7828   -0.4758 H   0  0  0  0  0  0  0  0  0  0  0  0
   -4.2356    2.4184   -0.9696 H   0  0  0  0  0  0  0  0  0  0  0  0
   -4.8176    0.2886    1.1483 H   0  0  0  0  0  0  0  0  0  0  0  0
   -4.0476    1.9267    1.1841 H   0  0  0  0  0  0  0  0  0  0  0  0
   -2.4554    0.1409    1.5275 H   0  0  0  0  0  0  0  0  0  0  0  0
   -2.6823   -0.3946   -0.2188 H   0  0  0  0  0  0  0  0  0  0  0  0
   -2.0049    2.4579    0.7293 H   0  0  0  0  0  0  0  0  0  0  0  0
   -2.2741    1.9305   -0.9713 H   0  0  0  0  0  0  0  0  0  0  0  0
    1.5992   -0.1041   -3.2843 H   0  0  0  0  0  0  0  0  0  0  0  0
    4.0216   -0.5440   -3.2922 H   0  0  0  0  0  0  0  0  0  0  0  0
    5.7811   -0.8721   -3.3239 H   0  0  0  0  0  0  0  0  0  0  0  0
    8.1650   -1.3003   -3.3180 H   0  0  0  0  0  0  0  0  0  0  0  0
    8.5266    0.7065    2.9763 H   0  0  0  0  0  0  0  0  0  0  0  0
    6.1465    1.1575    3.0417 H   0  0  0  0  0  0  0  0  0  0  0  0
    4.3672    1.4995    3.1051 H   0  0  0  0  0  0  0  0  0  0  0  0
    1.9853    1.9097    3.0448 H   0  0  0  0  0  0  0  0  0  0  0  0
   11.6614   -0.9209   -0.2489 H   0  0  0  0  0  0  0  0  0  0  0  0
  1  2  1  0
  2  3  1  0
  3  4  1  0
  4  5  1  0
  5  6  1  0
  6  7  1  0
  7  8  1  0
  8  9  1  0
  9 10  1  0
 10 11  1  0
 11 12  1  0
 12 13  1  0
 13 14  1  0
 14 15  2  0
 14 16  1  0
 16 17  2  0
 17 18  1  0
 18 19  2  0
 19 20  1  0
 20 21  2  0
 21 22  1  0
 22 23  2  0
 23 24  1  0
 24 25  1  0
 25 26  2  0
 26 27  1  0
 27 28  2  0
 28 29  1  0
 29 30  2  0
 30 31  1  0
 31 32  2  0
 32 33  1  0
 33 34  2  0
 32 35  1  0
 35 36  2  0
 28 37  1  0
 25 38  1  0
 38 39  2  0
 38 40  1  0
 40 41  1  0
 41 42  2  0
 35 13  1  0
 33 16  1  0
 34 19  1  0
 37 20  1  0
 41 23  1  0
 37 24  2  0
 34 29  1  0
  1 43  1  0
  1 44  1  0
  1 45  1  0
  2 46  1  0
  2 47  1  0
  3 48  1  0
  3 49  1  0
  4 50  1  0
  4 51  1  0
  5 52  1  0
  5 53  1  0
  6 54  1  0
  6 55  1  0
  7 56  1  0
  7 57  1  0
  8 58  1  0
  8 59  1  0
  9 60  1  0
  9 61  1  0
 10 62  1  0
 10 63  1  0
 11 64  1  0
 11 65  1  0
 12 66  1  0
 12 67  1  0
 17 68  1  0
 18 69  1  0
 21 70  1  0
 22 71  1  0
 26 72  1  0
 27 73  1  0
 30 74  1  0
 31 75  1  0
 40 76  1  0
M  END
