
     RDKit          3D

 23 24  0  0  0  0  0  0  0  0999 V2000
    3.9507   -0.6059    1.1201 C   0  0  0  0  0  0  0  0  0  0  0  0
    3.3040   -1.0806   -0.0350 O   0  0  0  0  0  0  0  0  0  0  0  0
    1.9554   -0.8021   -0.2968 C   0  0  0  0  0  0  0  0  0  0  0  0
    1.3345   -1.2743   -1.4333 C   0  0  0  0  0  0  0  0  0  0  0  0
    0.0083   -0.9916   -1.6761 C   0  0  0  0  0  0  0  0  0  0  0  0
   -0.7578   -0.2359   -0.8139 C   0  0  0  0  0  0  0  0  0  0  0  0
   -2.0932    0.0258   -1.0972 C   0  0  0  0  0  0  0  0  0  0  0  0
   -2.7859    0.7883   -0.1838 C   0  0  0  0  0  0  0  0  0  0  0  0
   -4.1848    1.1074   -0.4052 C   0  0  0  0  0  0  0  0  0  0  0  0
   -5.3080    1.3429   -0.5841 N   0  0  0  0  0  0  0  0  0  0  0  0
   -2.1164    1.2344    0.9347 C   0  0  0  0  0  0  0  0  0  0  0  0
   -2.8007    1.9514    1.7755 N   0  0  0  0  0  0  0  0  0  0  0  0
   -0.8486    0.9573    1.1554 O   0  0  0  0  0  0  0  0  0  0  0  0
   -0.1402    0.2384    0.3243 C   0  0  0  0  0  0  0  0  0  0  0  0
    1.2081   -0.0453    0.5775 C   0  0  0  0  0  0  0  0  0  0  0  0
    3.6889    0.4139    1.4096 H   0  0  0  0  0  0  0  0  0  0  0  0
    3.8387   -1.3330    1.9738 H   0  0  0  0  0  0  0  0  0  0  0  0
    5.0546   -0.6173    0.8842 H   0  0  0  0  0  0  0  0  0  0  0  0
    1.9133   -1.8798   -2.1428 H   0  0  0  0  0  0  0  0  0  0  0  0
   -0.5146   -1.3523   -2.5707 H   0  0  0  0  0  0  0  0  0  0  0  0
   -2.5603   -0.3592   -2.0023 H   0  0  0  0  0  0  0  0  0  0  0  0
   -3.7976    2.1679    1.5994 H   0  0  0  0  0  0  0  0  0  0  0  0
    1.6516    0.3496    1.4867 H   0  0  0  0  0  0  0  0  0  0  0  0
  1  2  1  0
  2  3  1  0
  3  4  2  0
  4  5  1  0
  5  6  2  0
  6  7  1  0
  7  8  2  0
  8  9  1  0
  9 10  3  0
  8 11  1  0
 11 12  2  3
 11 13  1  0
 13 14  1  0
 14 15  2  0
 15  3  1  0
 14  6  1  0
  1 16  1  0
  1 17  1  0
  1 18  1  0
  4 19  1  0
  5 20  1  0
  7 21  1  0
 12 22  1  0
 15 23  1  0
M  END
