
     RDKit          3D

 68 70  0  0  0  0  0  0  0  0999 V2000
   -4.8201   -3.8165   -2.1353 C   0  0  0  0  0  0  0  0  0  0  0  0
   -5.2639   -3.1750   -0.8298 C   0  0  0  0  0  0  0  0  0  0  0  0
   -5.4357   -1.7596   -0.9777 N   0  0  0  0  0  0  0  0  0  0  0  0
   -6.5239   -1.2770   -1.8532 C   0  0  0  0  0  0  0  0  0  0  0  0
   -7.8830   -1.5832   -1.2866 C   0  0  0  0  0  0  0  0  0  0  0  0
   -4.6392   -0.7874   -0.3182 C   0  0  0  0  0  0  0  0  0  0  0  0
   -3.3878   -0.4037   -0.7448 C   0  0  0  0  0  0  0  0  0  0  0  0
   -2.6424    0.5845   -0.0965 C   0  0  0  0  0  0  0  0  0  0  0  0
   -3.1358    1.2269    1.0151 C   0  0  0  0  0  0  0  0  0  0  0  0
   -2.3855    2.2633    1.6991 C   0  0  0  0  0  0  0  0  0  0  0  0
   -1.2328    2.7071    1.4118 N   0  0  0  0  0  0  0  0  0  0  0  0
   -0.5795    3.7398    2.1586 C   0  0  0  0  0  0  0  0  0  0  0  0
   -1.2645    4.8302    2.6547 C   0  0  0  0  0  0  0  0  0  0  0  0
   -0.5780    5.7899    3.3651 C   0  0  0  0  0  0  0  0  0  0  0  0
    0.7809    5.7110    3.6080 C   0  0  0  0  0  0  0  0  0  0  0  0
    1.4354    4.6092    3.0991 C   0  0  0  0  0  0  0  0  0  0  0  0
    0.7702    3.6141    2.3719 C   0  0  0  0  0  0  0  0  0  0  0  0
    1.4430    2.4812    1.8505 N   0  0  0  0  0  0  0  0  0  0  0  0
    2.6088    2.4928    1.3595 C   0  0  0  0  0  0  0  0  0  0  0  0
    3.3588    1.3679    0.8084 C   0  0  0  0  0  0  0  0  0  0  0  0
    4.6416    1.6110    0.3355 C   0  0  0  0  0  0  0  0  0  0  0  0
    5.4392    0.6189   -0.1865 C   0  0  0  0  0  0  0  0  0  0  0  0
    4.9542   -0.6912   -0.2498 C   0  0  0  0  0  0  0  0  0  0  0  0
    5.7826   -1.7152   -0.7670 N   0  0  0  0  0  0  0  0  0  0  0  0
    7.1271   -1.4694   -1.2127 C   0  0  0  0  0  0  0  0  0  0  0  0
    7.3341   -1.5725   -2.6945 C   0  0  0  0  0  0  0  0  0  0  0  0
    5.2719   -3.0681   -0.8585 C   0  0  0  0  0  0  0  0  0  0  0  0
    5.0218   -3.5095   -2.2806 C   0  0  0  0  0  0  0  0  0  0  0  0
    3.6830   -0.9072    0.2222 C   0  0  0  0  0  0  0  0  0  0  0  0
    2.8590    0.1037    0.7588 C   0  0  0  0  0  0  0  0  0  0  0  0
    1.6103   -0.1964    1.2048 O   0  0  0  0  0  0  0  0  0  0  0  0
   -4.3940    0.8473    1.4527 C   0  0  0  0  0  0  0  0  0  0  0  0
   -4.9107    1.4776    2.5694 O   0  0  0  0  0  0  0  0  0  0  0  0
   -5.1279   -0.1237    0.8162 C   0  0  0  0  0  0  0  0  0  0  0  0
   -4.4331   -3.0714   -2.8651 H   0  0  0  0  0  0  0  0  0  0  0  0
   -4.1154   -4.6204   -1.9450 H   0  0  0  0  0  0  0  0  0  0  0  0
   -5.7478   -4.2522   -2.5968 H   0  0  0  0  0  0  0  0  0  0  0  0
   -6.2296   -3.5911   -0.4838 H   0  0  0  0  0  0  0  0  0  0  0  0
   -4.4926   -3.3887   -0.0768 H   0  0  0  0  0  0  0  0  0  0  0  0
   -6.4477   -0.1705   -1.9577 H   0  0  0  0  0  0  0  0  0  0  0  0
   -6.3962   -1.6629   -2.8857 H   0  0  0  0  0  0  0  0  0  0  0  0
   -8.4956   -0.6828   -1.1713 H   0  0  0  0  0  0  0  0  0  0  0  0
   -7.7790   -2.0657   -0.2748 H   0  0  0  0  0  0  0  0  0  0  0  0
   -8.4176   -2.3307   -1.9099 H   0  0  0  0  0  0  0  0  0  0  0  0
   -2.9592   -0.8826   -1.6068 H   0  0  0  0  0  0  0  0  0  0  0  0
   -1.6548    0.8842   -0.4357 H   0  0  0  0  0  0  0  0  0  0  0  0
   -2.8673    2.7260    2.5731 H   0  0  0  0  0  0  0  0  0  0  0  0
   -2.3188    4.8987    2.4711 H   0  0  0  0  0  0  0  0  0  0  0  0
   -1.0965    6.6702    3.7711 H   0  0  0  0  0  0  0  0  0  0  0  0
    1.3481    6.4425    4.1592 H   0  0  0  0  0  0  0  0  0  0  0  0
    2.5188    4.4795    3.2528 H   0  0  0  0  0  0  0  0  0  0  0  0
    3.1060    3.4695    1.3536 H   0  0  0  0  0  0  0  0  0  0  0  0
    5.0360    2.6079    0.3757 H   0  0  0  0  0  0  0  0  0  0  0  0
    6.4287    0.8885   -0.5448 H   0  0  0  0  0  0  0  0  0  0  0  0
    7.5640   -0.5216   -0.8573 H   0  0  0  0  0  0  0  0  0  0  0  0
    7.7981   -2.2980   -0.7646 H   0  0  0  0  0  0  0  0  0  0  0  0
    6.4998   -1.1292   -3.2572 H   0  0  0  0  0  0  0  0  0  0  0  0
    8.2376   -0.9587   -2.9528 H   0  0  0  0  0  0  0  0  0  0  0  0
    7.5940   -2.5939   -3.0286 H   0  0  0  0  0  0  0  0  0  0  0  0
    6.0636   -3.7761   -0.4099 H   0  0  0  0  0  0  0  0  0  0  0  0
    4.3906   -3.2825   -0.2448 H   0  0  0  0  0  0  0  0  0  0  0  0
    4.8122   -2.7043   -2.9838 H   0  0  0  0  0  0  0  0  0  0  0  0
    4.1040   -4.1704   -2.2890 H   0  0  0  0  0  0  0  0  0  0  0  0
    5.8427   -4.1462   -2.6494 H   0  0  0  0  0  0  0  0  0  0  0  0
    3.2394   -1.8777    0.2007 H   0  0  0  0  0  0  0  0  0  0  0  0
    0.8864    0.2996    1.5977 H   0  0  0  0  0  0  0  0  0  0  0  0
   -5.8165    1.2215    2.9126 H   0  0  0  0  0  0  0  0  0  0  0  0
   -6.1195   -0.4312    1.1516 H   0  0  0  0  0  0  0  0  0  0  0  0
  1  2  1  0
  2  3  1  0
  3  4  1  0
  4  5  1  0
  3  6  1  0
  6  7  2  0
  7  8  1  0
  8  9  2  0
  9 10  1  0
 10 11  2  0
 11 12  1  0
 12 13  2  0
 13 14  1  0
 14 15  2  0
 15 16  1  0
 16 17  2  0
 17 18  1  0
 18 19  2  0
 19 20  1  0
 20 21  2  0
 21 22  1  0
 22 23  2  0
 23 24  1  0
 24 25  1  0
 25 26  1  0
 24 27  1  0
 27 28  1  0
 23 29  1  0
 29 30  2  0
 30 31  1  0
  9 32  1  0
 32 33  1  0
 32 34  2  0
 34  6  1  0
 17 12  1  0
 30 20  1  0
  1 35  1  0
  1 36  1  0
  1 37  1  0
  2 38  1  0
  2 39  1  0
  4 40  1  0
  4 41  1  0
  5 42  1  0
  5 43  1  0
  5 44  1  0
  7 45  1  0
  8 46  1  0
 10 47  1  0
 13 48  1  0
 14 49  1  0
 15 50  1  0
 16 51  1  0
 19 52  1  0
 21 53  1  0
 22 54  1  0
 25 55  1  0
 25 56  1  0
 26 57  1  0
 26 58  1  0
 26 59  1  0
 27 60  1  0
 27 61  1  0
 28 62  1  0
 28 63  1  0
 28 64  1  0
 29 65  1  0
 31 66  1  0
 33 67  1  0
 34 68  1  0
M  END
