
     RDKit          3D

 64 67  0  0  0  0  0  0  0  0999 V2000
   -7.3552    4.2296   -0.4453 C   0  0  0  0  0  0  0  0  0  0  0  0
   -6.7567    2.9894    0.1071 C   0  0  0  0  0  0  0  0  0  0  0  0
   -7.3571    2.3772    1.0163 O   0  0  0  0  0  0  0  0  0  0  0  0
   -5.4939    2.4635   -0.3753 C   0  0  0  0  0  0  0  0  0  0  0  0
   -4.8435    3.1566   -1.3839 C   0  0  0  0  0  0  0  0  0  0  0  0
   -3.6445    2.6562   -1.8404 C   0  0  0  0  0  0  0  0  0  0  0  0
   -3.0920    1.5335   -1.3468 N   0  0  0  0  0  0  0  0  0  0  0  0
   -1.9322    0.9241   -1.6888 C   0  0  0  0  0  0  0  0  0  0  0  0
   -1.8332   -0.1819   -0.8866 C   0  0  0  0  0  0  0  0  0  0  0  0
   -2.9499   -0.2496   -0.0407 C   0  0  0  0  0  0  0  0  0  0  0  0
   -3.2376   -1.2658    0.9653 C   0  0  0  0  0  0  0  0  0  0  0  0
   -3.7922   -2.4874    0.6441 C   0  0  0  0  0  0  0  0  0  0  0  0
   -4.0695   -3.4569    1.5845 C   0  0  0  0  0  0  0  0  0  0  0  0
   -3.7770   -3.1873    2.9033 C   0  0  0  0  0  0  0  0  0  0  0  0
   -4.0537   -4.1677    3.8801 N   0  0  0  0  0  0  0  0  0  0  0  0
   -3.2230   -1.9843    3.2771 C   0  0  0  0  0  0  0  0  0  0  0  0
   -2.9611   -1.0410    2.3042 C   0  0  0  0  0  0  0  0  0  0  0  0
   -3.7058    0.8531   -0.3744 C   0  0  0  0  0  0  0  0  0  0  0  0
   -4.9180    1.3180    0.1195 C   0  0  0  0  0  0  0  0  0  0  0  0
   -0.5997   -0.9124   -1.1856 C   0  0  0  0  0  0  0  0  0  0  0  0
    0.0719   -0.1855   -2.2345 N   0  0  0  0  0  0  0  0  0  0  0  0
    1.3353   -0.5825   -2.8152 C   0  0  0  0  0  0  0  0  0  0  0  0
    2.5183    0.0098   -2.0946 C   0  0  0  0  0  0  0  0  0  0  0  0
    3.7680   -0.4776   -2.7931 C   0  0  0  0  0  0  0  0  0  0  0  0
    4.9794    0.0266   -2.1913 N   0  0  0  0  0  0  0  0  0  0  0  0
    5.3355   -0.2245   -0.8492 C   0  0  0  0  0  0  0  0  0  0  0  0
    4.5324   -0.9285   -0.1693 O   0  0  0  0  0  0  0  0  0  0  0  0
    6.4974    0.2560   -0.2621 O   0  0  0  0  0  0  0  0  0  0  0  0
    6.8007   -0.0311    1.0949 C   0  0  0  0  0  0  0  0  0  0  0  0
    8.0963    0.5845    1.5149 C   0  0  0  0  0  0  0  0  0  0  0  0
    6.9489   -1.5370    1.1981 C   0  0  0  0  0  0  0  0  0  0  0  0
    5.7277    0.4096    2.0414 C   0  0  0  0  0  0  0  0  0  0  0  0
   -0.7473    0.9328   -2.5359 C   0  0  0  0  0  0  0  0  0  0  0  0
   -0.4992    1.8096   -3.4035 O   0  0  0  0  0  0  0  0  0  0  0  0
   -8.3800    4.3952   -0.1075 H   0  0  0  0  0  0  0  0  0  0  0  0
   -7.2737    4.2385   -1.5711 H   0  0  0  0  0  0  0  0  0  0  0  0
   -6.7366    5.0922   -0.1128 H   0  0  0  0  0  0  0  0  0  0  0  0
   -5.2578    4.0643   -1.8053 H   0  0  0  0  0  0  0  0  0  0  0  0
   -3.1485    3.1925   -2.6167 H   0  0  0  0  0  0  0  0  0  0  0  0
   -4.0248   -2.7060   -0.3910 H   0  0  0  0  0  0  0  0  0  0  0  0
   -4.5035   -4.4191    1.3523 H   0  0  0  0  0  0  0  0  0  0  0  0
   -3.3548   -4.4284    4.5952 H   0  0  0  0  0  0  0  0  0  0  0  0
   -4.9806   -4.6528    3.8973 H   0  0  0  0  0  0  0  0  0  0  0  0
   -2.9940   -1.7800    4.3345 H   0  0  0  0  0  0  0  0  0  0  0  0
   -2.5242   -0.0917    2.5961 H   0  0  0  0  0  0  0  0  0  0  0  0
   -5.4122    0.7774    0.8967 H   0  0  0  0  0  0  0  0  0  0  0  0
    0.1000   -0.9458   -0.3200 H   0  0  0  0  0  0  0  0  0  0  0  0
   -0.8536   -1.9551   -1.4642 H   0  0  0  0  0  0  0  0  0  0  0  0
    1.4123   -0.2668   -3.8886 H   0  0  0  0  0  0  0  0  0  0  0  0
    1.4096   -1.6865   -2.7582 H   0  0  0  0  0  0  0  0  0  0  0  0
    2.4580   -0.2986   -1.0386 H   0  0  0  0  0  0  0  0  0  0  0  0
    2.5370    1.1037   -2.1176 H   0  0  0  0  0  0  0  0  0  0  0  0
    3.7311   -1.6042   -2.7192 H   0  0  0  0  0  0  0  0  0  0  0  0
    3.6869   -0.2395   -3.8502 H   0  0  0  0  0  0  0  0  0  0  0  0
    5.6221    0.6031   -2.7734 H   0  0  0  0  0  0  0  0  0  0  0  0
    8.2279    0.3751    2.6071 H   0  0  0  0  0  0  0  0  0  0  0  0
    8.9571    0.1301    0.9601 H   0  0  0  0  0  0  0  0  0  0  0  0
    8.0763    1.6862    1.3946 H   0  0  0  0  0  0  0  0  0  0  0  0
    8.0124   -1.8304    1.3390 H   0  0  0  0  0  0  0  0  0  0  0  0
    6.6064   -2.0614    0.2840 H   0  0  0  0  0  0  0  0  0  0  0  0
    6.3677   -1.9267    2.0427 H   0  0  0  0  0  0  0  0  0  0  0  0
    6.1902    0.4102    3.0707 H   0  0  0  0  0  0  0  0  0  0  0  0
    5.4315    1.4679    1.8600 H   0  0  0  0  0  0  0  0  0  0  0  0
    4.8482   -0.2728    2.0509 H   0  0  0  0  0  0  0  0  0  0  0  0
  1  2  1  0
  2  3  2  0
  2  4  1  0
  4  5  1  0
  5  6  2  0
  6  7  1  0
  7  8  1  0
  8  9  2  0
  9 10  1  0
 10 11  1  0
 11 12  2  0
 12 13  1  0
 13 14  2  0
 14 15  1  0
 14 16  1  0
 16 17  2  0
 10 18  2  0
 18 19  1  0
  9 20  1  0
 20 21  1  0
 21 22  1  0
 22 23  1  0
 23 24  1  0
 24 25  1  0
 25 26  1  0
 26 27  2  0
 26 28  1  0
 28 29  1  0
 29 30  1  0
 29 31  1  0
 29 32  1  0
 21 33  1  0
 33 34  2  0
 19  4  2  0
 18  7  1  0
 33  8  1  0
 17 11  1  0
  1 35  1  0
  1 36  1  0
  1 37  1  0
  5 38  1  0
  6 39  1  0
 12 40  1  0
 13 41  1  0
 15 42  1  0
 15 43  1  0
 16 44  1  0
 17 45  1  0
 19 46  1  0
 20 47  1  0
 20 48  1  0
 22 49  1  0
 22 50  1  0
 23 51  1  0
 23 52  1  0
 24 53  1  0
 24 54  1  0
 25 55  1  0
 30 56  1  0
 30 57  1  0
 30 58  1  0
 31 59  1  0
 31 60  1  0
 31 61  1  0
 32 62  1  0
 32 63  1  0
 32 64  1  0
M  END
