
     RDKit          3D

 84 90  0  0  0  0  0  0  0  0999 V2000
   -9.6741   -1.8523    0.4337 C   0  0  0  0  0  0  0  0  0  0  0  0
   -9.2619   -0.5304    1.0712 C   0  0  0  0  0  0  0  0  0  0  0  0
  -10.0216    0.5514    0.3493 C   0  0  0  0  0  0  0  0  0  0  0  0
   -9.6939   -0.5756    2.5210 C   0  0  0  0  0  0  0  0  0  0  0  0
   -7.7935   -0.3739    0.9201 C   0  0  0  0  0  0  0  0  0  0  0  0
   -7.2486    0.5859    0.1135 C   0  0  0  0  0  0  0  0  0  0  0  0
   -5.8749    0.7370   -0.0422 C   0  0  0  0  0  0  0  0  0  0  0  0
   -5.0127   -0.0839    0.6169 C   0  0  0  0  0  0  0  0  0  0  0  0
   -3.5748    0.0206    0.4776 C   0  0  0  0  0  0  0  0  0  0  0  0
   -2.5339   -0.6669    1.0252 C   0  0  0  0  0  0  0  0  0  0  0  0
   -1.2788   -0.3136    0.6656 C   0  0  0  0  0  0  0  0  0  0  0  0
   -0.0645   -0.8967    1.1090 C   0  0  0  0  0  0  0  0  0  0  0  0
    1.1339   -0.4048    0.6262 C   0  0  0  0  0  0  0  0  0  0  0  0
    1.2861    0.6202   -0.2647 C   0  0  0  0  0  0  0  0  0  0  0  0
    2.5499    0.9542   -0.6223 C   0  0  0  0  0  0  0  0  0  0  0  0
    3.5811    0.2649   -0.0867 C   0  0  0  0  0  0  0  0  0  0  0  0
    5.0191    0.3510   -0.2453 C   0  0  0  0  0  0  0  0  0  0  0  0
    5.8690   -0.4970    0.4302 C   0  0  0  0  0  0  0  0  0  0  0  0
    7.2379   -0.3966    0.2625 C   0  0  0  0  0  0  0  0  0  0  0  0
    7.8102    0.5406   -0.5741 C   0  0  0  0  0  0  0  0  0  0  0  0
    9.2882    0.6001   -0.7124 C   0  0  0  0  0  0  0  0  0  0  0  0
    9.7496   -0.5802   -1.5544 C   0  0  0  0  0  0  0  0  0  0  0  0
    9.6981    1.8633   -1.4052 C   0  0  0  0  0  0  0  0  0  0  0  0
   10.0030    0.5076    0.6101 C   0  0  0  0  0  0  0  0  0  0  0  0
    6.9608    1.3890   -1.2493 C   0  0  0  0  0  0  0  0  0  0  0  0
    5.5851    1.2877   -1.0810 C   0  0  0  0  0  0  0  0  0  0  0  0
    2.7804   -0.8795    0.9433 P   0  0  0  0  0  0  0  0  0  0  0  0
    3.3807   -2.4034    1.7577 C   0  0  0  0  0  0  0  0  0  0  0  0
    3.4501   -3.5814    1.0354 C   0  0  0  0  0  0  0  0  0  0  0  0
    3.8836   -4.7580    1.5872 C   0  0  0  0  0  0  0  0  0  0  0  0
    4.2665   -4.7786    2.9103 C   0  0  0  0  0  0  0  0  0  0  0  0
    4.2100   -3.6190    3.6622 C   0  0  0  0  0  0  0  0  0  0  0  0
    3.7692   -2.4487    3.0786 C   0  0  0  0  0  0  0  0  0  0  0  0
    0.0727    1.2045   -0.7086 C   0  0  0  0  0  0  0  0  0  0  0  0
   -1.1306    0.7120   -0.2252 C   0  0  0  0  0  0  0  0  0  0  0  0
   -2.7773    1.1702   -0.5487 P   0  0  0  0  0  0  0  0  0  0  0  0
   -3.3934    2.3583   -1.7675 C   0  0  0  0  0  0  0  0  0  0  0  0
   -3.8424    1.9581   -3.0141 C   0  0  0  0  0  0  0  0  0  0  0  0
   -4.3194    2.8524   -3.9617 C   0  0  0  0  0  0  0  0  0  0  0  0
   -4.3573    4.2032   -3.6720 C   0  0  0  0  0  0  0  0  0  0  0  0
   -3.9170    4.6460   -2.4364 C   0  0  0  0  0  0  0  0  0  0  0  0
   -3.4452    3.7209   -1.5105 C   0  0  0  0  0  0  0  0  0  0  0  0
   -5.5323   -1.0749    1.4498 C   0  0  0  0  0  0  0  0  0  0  0  0
   -6.9135   -1.2095    1.5926 C   0  0  0  0  0  0  0  0  0  0  0  0
   -9.6573   -2.6891    1.1548 H   0  0  0  0  0  0  0  0  0  0  0  0
   -8.9586   -2.0299   -0.4159 H   0  0  0  0  0  0  0  0  0  0  0  0
  -10.6712   -1.7629   -0.0109 H   0  0  0  0  0  0  0  0  0  0  0  0
   -9.6339    1.5514    0.6195 H   0  0  0  0  0  0  0  0  0  0  0  0
  -11.0907    0.4738    0.6471 H   0  0  0  0  0  0  0  0  0  0  0  0
   -9.9175    0.3574   -0.7428 H   0  0  0  0  0  0  0  0  0  0  0  0
   -9.1353    0.1397    3.1566 H   0  0  0  0  0  0  0  0  0  0  0  0
   -9.6468   -1.5900    2.9404 H   0  0  0  0  0  0  0  0  0  0  0  0
  -10.7728   -0.2527    2.5203 H   0  0  0  0  0  0  0  0  0  0  0  0
   -7.9160    1.2552   -0.4257 H   0  0  0  0  0  0  0  0  0  0  0  0
   -5.4672    1.5050   -0.6814 H   0  0  0  0  0  0  0  0  0  0  0  0
   -2.7419   -1.4959    1.7532 H   0  0  0  0  0  0  0  0  0  0  0  0
   -0.0438   -1.7148    1.8124 H   0  0  0  0  0  0  0  0  0  0  0  0
    2.7642    1.7817   -1.3468 H   0  0  0  0  0  0  0  0  0  0  0  0
    5.4558   -1.2337    1.0849 H   0  0  0  0  0  0  0  0  0  0  0  0
    7.9065   -1.0849    0.8104 H   0  0  0  0  0  0  0  0  0  0  0  0
    9.9624   -0.2303   -2.6083 H   0  0  0  0  0  0  0  0  0  0  0  0
    8.9453   -1.3323   -1.6491 H   0  0  0  0  0  0  0  0  0  0  0  0
   10.6611   -1.0597   -1.1586 H   0  0  0  0  0  0  0  0  0  0  0  0
    9.2181    2.7271   -0.8853 H   0  0  0  0  0  0  0  0  0  0  0  0
   10.8059    1.9579   -1.3534 H   0  0  0  0  0  0  0  0  0  0  0  0
    9.4058    1.8594   -2.4714 H   0  0  0  0  0  0  0  0  0  0  0  0
    9.8836   -0.5007    1.0863 H   0  0  0  0  0  0  0  0  0  0  0  0
    9.7308    1.3318    1.2940 H   0  0  0  0  0  0  0  0  0  0  0  0
   11.0893    0.6125    0.3869 H   0  0  0  0  0  0  0  0  0  0  0  0
    7.4346    2.1162   -1.9045 H   0  0  0  0  0  0  0  0  0  0  0  0
    4.9522    1.9843   -1.6410 H   0  0  0  0  0  0  0  0  0  0  0  0
    3.1522   -3.5835   -0.0025 H   0  0  0  0  0  0  0  0  0  0  0  0
    3.9388   -5.6883    1.0217 H   0  0  0  0  0  0  0  0  0  0  0  0
    4.6057   -5.6905    3.3510 H   0  0  0  0  0  0  0  0  0  0  0  0
    4.5203   -3.6858    4.6940 H   0  0  0  0  0  0  0  0  0  0  0  0
    3.7334   -1.5505    3.6821 H   0  0  0  0  0  0  0  0  0  0  0  0
    0.0458    2.0167   -1.4065 H   0  0  0  0  0  0  0  0  0  0  0  0
   -3.8062    0.8890   -3.2273 H   0  0  0  0  0  0  0  0  0  0  0  0
   -4.6659    2.4885   -4.9390 H   0  0  0  0  0  0  0  0  0  0  0  0
   -4.7278    4.8950   -4.4141 H   0  0  0  0  0  0  0  0  0  0  0  0
   -3.9506    5.7149   -2.2182 H   0  0  0  0  0  0  0  0  0  0  0  0
   -3.1024    4.0483   -0.5546 H   0  0  0  0  0  0  0  0  0  0  0  0
   -4.8733   -1.7397    1.9868 H   0  0  0  0  0  0  0  0  0  0  0  0
   -7.3563   -1.9646    2.2300 H   0  0  0  0  0  0  0  0  0  0  0  0
  1  2  1  0
  2  3  1  0
  2  4  1  0
  2  5  1  0
  5  6  2  0
  6  7  1  0
  7  8  2  0
  8  9  1  0
  9 10  2  0
 10 11  1  0
 11 12  2  0
 12 13  1  0
 13 14  2  0
 14 15  1  0
 15 16  2  0
 16 17  1  0
 17 18  2  0
 18 19  1  0
 19 20  2  0
 20 21  1  0
 21 22  1  0
 21 23  1  0
 21 24  1  0
 20 25  1  0
 25 26  2  0
 16 27  1  0
 27 28  1  0
 28 29  2  0
 29 30  1  0
 30 31  2  0
 31 32  1  0
 32 33  2  0
 14 34  1  0
 34 35  2  0
 35 36  1  0
 36 37  1  0
 37 38  2  0
 38 39  1  0
 39 40  2  0
 40 41  1  0
 41 42  2  0
  8 43  1  0
 43 44  2  0
 44  5  1  0
 36  9  1  0
 42 37  1  0
 35 11  1  0
 27 13  1  0
 33 28  1  0
 26 17  1  0
  1 45  1  0
  1 46  1  0
  1 47  1  0
  3 48  1  0
  3 49  1  0
  3 50  1  0
  4 51  1  0
  4 52  1  0
  4 53  1  0
  6 54  1  0
  7 55  1  0
 10 56  1  0
 12 57  1  0
 15 58  1  0
 18 59  1  0
 19 60  1  0
 22 61  1  0
 22 62  1  0
 22 63  1  0
 23 64  1  0
 23 65  1  0
 23 66  1  0
 24 67  1  0
 24 68  1  0
 24 69  1  0
 25 70  1  0
 26 71  1  0
 29 72  1  0
 30 73  1  0
 31 74  1  0
 32 75  1  0
 33 76  1  0
 34 77  1  0
 38 78  1  0
 39 79  1  0
 40 80  1  0
 41 81  1  0
 42 82  1  0
 43 83  1  0
 44 84  1  0
M  END
