
     RDKit          3D

 25 26  0  0  0  0  0  0  0  0999 V2000
   -3.9976   -0.7452    0.2504 C   0  0  0  0  0  0  0  0  0  0  0  0
   -3.1946    0.4230    0.0457 N   0  0  0  0  0  0  0  0  0  0  0  0
   -3.7448    1.7510    0.0167 C   0  0  0  0  0  0  0  0  0  0  0  0
   -1.7789    0.2940   -0.1603 C   0  0  0  0  0  0  0  0  0  0  0  0
   -1.1166    0.3482   -1.3664 C   0  0  0  0  0  0  0  0  0  0  0  0
    0.2281    0.1938   -1.3179 C   0  0  0  0  0  0  0  0  0  0  0  0
    0.7989    0.0027   -0.1016 C   0  0  0  0  0  0  0  0  0  0  0  0
    2.2143   -0.1933    0.2129 C   0  0  0  0  0  0  0  0  0  0  0  0
    3.2849   -0.2856   -0.5880 C   0  0  0  0  0  0  0  0  0  0  0  0
    4.4942   -0.4682   -0.0615 C   0  0  0  0  0  0  0  0  0  0  0  0
    4.5499   -0.5518    1.3294 C   0  0  0  0  0  0  0  0  0  0  0  0
    5.7321   -0.7329    2.1689 C   0  0  0  0  0  0  0  0  0  0  0  0
    6.6585   -0.8897    2.8134 N   0  0  0  0  0  0  0  0  0  0  0  0
    2.9096   -0.3685    1.7677 S   0  0  0  0  0  0  0  0  0  0  0  0
   -0.5345    0.0376    0.9628 S   0  0  0  0  0  0  0  0  0  0  0  0
   -3.5046   -1.6191   -0.1929 H   0  0  0  0  0  0  0  0  0  0  0  0
   -4.0193   -0.9496    1.3597 H   0  0  0  0  0  0  0  0  0  0  0  0
   -5.0386   -0.6313   -0.1252 H   0  0  0  0  0  0  0  0  0  0  0  0
   -4.7947    1.7436   -0.4050 H   0  0  0  0  0  0  0  0  0  0  0  0
   -3.1512    2.3734   -0.6925 H   0  0  0  0  0  0  0  0  0  0  0  0
   -3.7599    2.2734    0.9764 H   0  0  0  0  0  0  0  0  0  0  0  0
   -1.6802    0.5224   -2.3103 H   0  0  0  0  0  0  0  0  0  0  0  0
    0.8475    0.2219   -2.2613 H   0  0  0  0  0  0  0  0  0  0  0  0
    3.1517   -0.2072   -1.7033 H   0  0  0  0  0  0  0  0  0  0  0  0
    5.4457   -0.5605   -0.6178 H   0  0  0  0  0  0  0  0  0  0  0  0
  1  2  1  0
  2  3  1  0
  2  4  1  0
  4  5  2  0
  5  6  1  0
  6  7  2  0
  7  8  1  0
  8  9  2  0
  9 10  1  0
 10 11  2  0
 11 12  1  0
 12 13  3  0
 11 14  1  0
  7 15  1  0
 15  4  1  0
 14  8  1  0
  1 16  1  0
  1 17  1  0
  1 18  1  0
  3 19  1  0
  3 20  1  0
  3 21  1  0
  5 22  1  0
  6 23  1  0
  9 24  1  0
 10 25  1  0
M  END
