
     RDKit          3D

 61 68  0  0  0  0  0  0  0  0999 V2000
   -7.1776    1.6424    1.3586 C   0  0  0  0  0  0  0  0  0  0  0  0
   -7.3364    0.7197    0.1734 C   0  0  0  0  0  0  0  0  0  0  0  0
   -8.7105    0.0891    0.2638 C   0  0  0  0  0  0  0  0  0  0  0  0
   -7.2810    1.5182   -1.1006 C   0  0  0  0  0  0  0  0  0  0  0  0
   -6.3418   -0.3815    0.1913 C   0  0  0  0  0  0  0  0  0  0  0  0
   -6.6861   -1.7156    0.2345 C   0  0  0  0  0  0  0  0  0  0  0  0
   -5.7589   -2.7404    0.2511 C   0  0  0  0  0  0  0  0  0  0  0  0
   -4.4152   -2.4295    0.2233 C   0  0  0  0  0  0  0  0  0  0  0  0
   -4.0557   -1.1091    0.1802 C   0  0  0  0  0  0  0  0  0  0  0  0
   -4.9799   -0.0862    0.1637 C   0  0  0  0  0  0  0  0  0  0  0  0
   -4.3392    1.0343    0.1224 O   0  0  0  0  0  0  0  0  0  0  0  0
   -3.0208    0.8324    0.1098 C   0  0  0  0  0  0  0  0  0  0  0  0
   -1.9626    1.6492    0.0714 N   0  0  0  0  0  0  0  0  0  0  0  0
   -0.6875    1.2216    0.0659 C   0  0  0  0  0  0  0  0  0  0  0  0
    0.4819    1.8240    0.0321 O   0  0  0  0  0  0  0  0  0  0  0  0
    1.4612    0.9613    0.0433 C   0  0  0  0  0  0  0  0  0  0  0  0
    2.8316    1.1007    0.0201 C   0  0  0  0  0  0  0  0  0  0  0  0
    3.6246   -0.0276    0.0415 C   0  0  0  0  0  0  0  0  0  0  0  0
    5.0368    0.0360    0.0198 N   0  0  0  0  0  0  0  0  0  0  0  0
    5.7568    0.7056   -0.9040 C   0  0  0  0  0  0  0  0  0  0  0  0
    5.3442    1.4518   -1.9933 C   0  0  0  0  0  0  0  0  0  0  0  0
    6.2901    2.0511   -2.8053 C   0  0  0  0  0  0  0  0  0  0  0  0
    7.6332    1.9016   -2.5251 C   0  0  0  0  0  0  0  0  0  0  0  0
    8.0697    1.1710   -1.4568 C   0  0  0  0  0  0  0  0  0  0  0  0
    7.1036    0.5736   -0.6485 C   0  0  0  0  0  0  0  0  0  0  0  0
    7.1982   -0.2113    0.4805 C   0  0  0  0  0  0  0  0  0  0  0  0
    8.3103   -0.6544    1.1700 C   0  0  0  0  0  0  0  0  0  0  0  0
    8.1280   -1.4504    2.3013 C   0  0  0  0  0  0  0  0  0  0  0  0
    6.8472   -1.7738    2.7016 C   0  0  0  0  0  0  0  0  0  0  0  0
    5.7489   -1.3212    1.9992 C   0  0  0  0  0  0  0  0  0  0  0  0
    5.9041   -0.5266    0.8685 C   0  0  0  0  0  0  0  0  0  0  0  0
    3.0497   -1.2976    0.0861 C   0  0  0  0  0  0  0  0  0  0  0  0
    1.6679   -1.4381    0.1095 C   0  0  0  0  0  0  0  0  0  0  0  0
    0.8960   -0.3023    0.0876 C   0  0  0  0  0  0  0  0  0  0  0  0
   -0.4781   -0.1412    0.1022 C   0  0  0  0  0  0  0  0  0  0  0  0
   -1.5251   -1.0333    0.1426 C   0  0  0  0  0  0  0  0  0  0  0  0
   -2.8072   -0.5289    0.1460 C   0  0  0  0  0  0  0  0  0  0  0  0
   -6.1915    2.1477    1.3535 H   0  0  0  0  0  0  0  0  0  0  0  0
   -7.3575    1.1169    2.3133 H   0  0  0  0  0  0  0  0  0  0  0  0
   -7.9588    2.4244    1.2642 H   0  0  0  0  0  0  0  0  0  0  0  0
   -8.8828   -0.5171   -0.6488 H   0  0  0  0  0  0  0  0  0  0  0  0
   -8.8472   -0.5072    1.1892 H   0  0  0  0  0  0  0  0  0  0  0  0
   -9.5054    0.8898    0.2282 H   0  0  0  0  0  0  0  0  0  0  0  0
   -6.2941    1.9933   -1.2661 H   0  0  0  0  0  0  0  0  0  0  0  0
   -7.5609    0.8999   -1.9708 H   0  0  0  0  0  0  0  0  0  0  0  0
   -8.0066    2.3554   -0.9877 H   0  0  0  0  0  0  0  0  0  0  0  0
   -7.7599   -1.9581    0.2565 H   0  0  0  0  0  0  0  0  0  0  0  0
   -6.1087   -3.7641    0.2855 H   0  0  0  0  0  0  0  0  0  0  0  0
   -3.6562   -3.1901    0.2346 H   0  0  0  0  0  0  0  0  0  0  0  0
    3.3306    2.0566   -0.0145 H   0  0  0  0  0  0  0  0  0  0  0  0
    4.2768    1.5667   -2.2105 H   0  0  0  0  0  0  0  0  0  0  0  0
    5.9434    2.6389   -3.6644 H   0  0  0  0  0  0  0  0  0  0  0  0
    8.3779    2.3677   -3.1561 H   0  0  0  0  0  0  0  0  0  0  0  0
    9.1028    1.0229   -1.1938 H   0  0  0  0  0  0  0  0  0  0  0  0
    9.3013   -0.3843    0.8318 H   0  0  0  0  0  0  0  0  0  0  0  0
    9.0079   -1.8049    2.8525 H   0  0  0  0  0  0  0  0  0  0  0  0
    6.7500   -2.3926    3.5833 H   0  0  0  0  0  0  0  0  0  0  0  0
    4.7508   -1.5877    2.3319 H   0  0  0  0  0  0  0  0  0  0  0  0
    3.6756   -2.1878    0.1030 H   0  0  0  0  0  0  0  0  0  0  0  0
    1.1731   -2.3992    0.1442 H   0  0  0  0  0  0  0  0  0  0  0  0
   -1.3809   -2.1018    0.1714 H   0  0  0  0  0  0  0  0  0  0  0  0
  1  2  1  0
  2  3  1  0
  2  4  1  0
  2  5  1  0
  5  6  2  0
  6  7  1  0
  7  8  2  0
  8  9  1  0
  9 10  2  0
 10 11  1  0
 11 12  1  0
 12 13  2  0
 13 14  1  0
 14 15  1  0
 15 16  1  0
 16 17  2  0
 17 18  1  0
 18 19  1  0
 19 20  1  0
 20 21  2  0
 21 22  1  0
 22 23  2  0
 23 24  1  0
 24 25  2  0
 25 26  1  0
 26 27  2  0
 27 28  1  0
 28 29  2  0
 29 30  1  0
 30 31  2  0
 18 32  2  0
 32 33  1  0
 33 34  2  0
 34 35  1  0
 35 36  1  0
 36 37  2  0
 10  5  1  0
 37 12  1  0
 37  9  1  0
 35 14  2  0
 34 16  1  0
 31 19  1  0
 25 20  1  0
 31 26  1  0
  1 38  1  0
  1 39  1  0
  1 40  1  0
  3 41  1  0
  3 42  1  0
  3 43  1  0
  4 44  1  0
  4 45  1  0
  4 46  1  0
  6 47  1  0
  7 48  1  0
  8 49  1  0
 17 50  1  0
 21 51  1  0
 22 52  1  0
 23 53  1  0
 24 54  1  0
 27 55  1  0
 28 56  1  0
 29 57  1  0
 30 58  1  0
 32 59  1  0
 33 60  1  0
 36 61  1  0
M  END
