
     RDKit          3D

 48 54  0  0  0  0  0  0  0  0999 V2000
    2.7486    0.5248   -2.6289 O   0  0  0  0  0  0  0  0  0  0  0  0
    2.7834    0.4084   -1.3813 C   0  0  0  0  0  0  0  0  0  0  0  0
    3.7256   -0.3636   -0.6280 C   0  0  0  0  0  0  0  0  0  0  0  0
    4.8928   -0.9986   -1.0396 C   0  0  0  0  0  0  0  0  0  0  0  0
    5.6604   -1.6975   -0.1332 C   0  0  0  0  0  0  0  0  0  0  0  0
    5.2330   -1.7426    1.1787 C   0  0  0  0  0  0  0  0  0  0  0  0
    4.0983   -1.1321    1.6073 C   0  0  0  0  0  0  0  0  0  0  0  0
    3.3233   -0.4235    0.6799 C   0  0  0  0  0  0  0  0  0  0  0  0
    2.0854    0.3286    0.7873 C   0  0  0  0  0  0  0  0  0  0  0  0
    1.3482    0.3392    1.7965 O   0  0  0  0  0  0  0  0  0  0  0  0
    1.8007    1.0909   -0.4619 C   0  0  0  0  0  0  0  0  0  0  0  0
    0.4679    0.8426   -0.9467 C   0  0  0  0  0  0  0  0  0  0  0  0
    0.2883   -0.6445   -0.9337 C   0  0  0  0  0  0  0  0  0  0  0  0
    1.1158   -1.5191   -1.3172 O   0  0  0  0  0  0  0  0  0  0  0  0
   -1.0231   -0.9506   -0.3969 C   0  0  0  0  0  0  0  0  0  0  0  0
   -1.7197   -2.1388   -0.1416 C   0  0  0  0  0  0  0  0  0  0  0  0
   -1.1222   -3.3353   -0.4162 C   0  0  0  0  0  0  0  0  0  0  0  0
   -1.8281   -4.4967   -0.1562 C   0  0  0  0  0  0  0  0  0  0  0  0
   -3.1002   -4.4195    0.3666 C   0  0  0  0  0  0  0  0  0  0  0  0
   -3.6828   -3.1987    0.6359 C   0  0  0  0  0  0  0  0  0  0  0  0
   -3.0009   -2.0316    0.3858 C   0  0  0  0  0  0  0  0  0  0  0  0
   -3.5693   -0.7937    0.6495 C   0  0  0  0  0  0  0  0  0  0  0  0
   -2.8507    0.3758    0.3849 C   0  0  0  0  0  0  0  0  0  0  0  0
   -3.3611    1.6203    0.6176 C   0  0  0  0  0  0  0  0  0  0  0  0
   -2.5970    2.7170    0.3254 C   0  0  0  0  0  0  0  0  0  0  0  0
   -3.0547    4.0035    0.5338 C   0  0  0  0  0  0  0  0  0  0  0  0
   -2.2672    5.0944    0.2288 C   0  0  0  0  0  0  0  0  0  0  0  0
   -0.9970    4.9569   -0.2940 C   0  0  0  0  0  0  0  0  0  0  0  0
   -0.5326    3.6687   -0.5051 C   0  0  0  0  0  0  0  0  0  0  0  0
   -1.3065    2.5782   -0.2053 C   0  0  0  0  0  0  0  0  0  0  0  0
   -0.7568    1.3155   -0.4536 C   0  0  0  0  0  0  0  0  0  0  0  0
   -1.5815    0.2716   -0.1367 C   0  0  0  0  0  0  0  0  0  0  0  0
    5.2325   -0.9640   -2.0775 H   0  0  0  0  0  0  0  0  0  0  0  0
    6.5756   -2.1990   -0.4407 H   0  0  0  0  0  0  0  0  0  0  0  0
    5.8543   -2.3013    1.8829 H   0  0  0  0  0  0  0  0  0  0  0  0
    3.7399   -1.1516    2.6311 H   0  0  0  0  0  0  0  0  0  0  0  0
    2.2291    2.0601   -0.3109 H   0  0  0  0  0  0  0  0  0  0  0  0
    0.4685    1.0576   -2.0690 H   0  0  0  0  0  0  0  0  0  0  0  0
   -0.1260   -3.4130   -0.8261 H   0  0  0  0  0  0  0  0  0  0  0  0
   -1.3697   -5.4572   -0.3680 H   0  0  0  0  0  0  0  0  0  0  0  0
   -3.6842   -5.3097    0.5835 H   0  0  0  0  0  0  0  0  0  0  0  0
   -4.6835   -3.1315    1.0474 H   0  0  0  0  0  0  0  0  0  0  0  0
   -4.5521   -0.7208    1.0535 H   0  0  0  0  0  0  0  0  0  0  0  0
   -4.3389    1.7369    1.0203 H   0  0  0  0  0  0  0  0  0  0  0  0
   -4.0401    4.1616    0.9402 H   0  0  0  0  0  0  0  0  0  0  0  0
   -2.6166    6.1146    0.3886 H   0  0  0  0  0  0  0  0  0  0  0  0
   -0.3582    5.7746   -0.5427 H   0  0  0  0  0  0  0  0  0  0  0  0
    0.4491    3.4925   -0.9147 H   0  0  0  0  0  0  0  0  0  0  0  0
  1  2  2  0
  2  3  1  0
  3  4  2  0
  4  5  1  0
  5  6  2  0
  6  7  1  0
  7  8  2  0
  8  9  1  0
  9 10  2  0
  9 11  1  0
 11 12  1  0
 12 13  1  0
 13 14  2  0
 13 15  1  0
 15 16  1  0
 16 17  2  0
 17 18  1  0
 18 19  2  0
 19 20  1  0
 20 21  2  0
 21 22  1  0
 22 23  2  0
 23 24  1  0
 24 25  2  0
 25 26  1  0
 26 27  2  0
 27 28  1  0
 28 29  2  0
 29 30  1  0
 30 31  2  0
 31 32  1  0
 11  2  1  0
 31 12  1  0
  8  3  1  0
 32 15  2  0
 21 16  1  0
 32 23  1  0
 30 25  1  0
  4 33  1  0
  5 34  1  0
  6 35  1  0
  7 36  1  0
 11 37  1  0
 12 38  1  0
 17 39  1  0
 18 40  1  0
 19 41  1  0
 20 42  1  0
 22 43  1  0
 24 44  1  0
 26 45  1  0
 27 46  1  0
 28 47  1  0
 29 48  1  0
M  END
