
     RDKit          3D

 66 71  0  0  0  0  0  0  0  0999 V2000
   -1.2059    4.9241    0.1678 C   0  0  0  0  0  0  0  0  0  0  0  0
   -1.2627    3.6706    0.9854 C   0  0  0  0  0  0  0  0  0  0  0  0
   -1.5560    2.4428    0.1499 C   0  0  0  0  0  0  0  0  0  0  0  0
   -1.5852    1.2570    1.0937 C   0  0  0  0  0  0  0  0  0  0  0  0
   -1.8448    0.0047    0.4607 N   0  0  0  0  0  0  0  0  0  0  0  0
   -1.0293   -0.8814   -0.0607 C   0  0  0  0  0  0  0  0  0  0  0  0
    0.4203   -0.9082   -0.1857 C   0  0  0  0  0  0  0  0  0  0  0  0
    1.2684    0.1281    0.0918 C   0  0  0  0  0  0  0  0  0  0  0  0
    2.6555    0.0091   -0.0239 C   0  0  0  0  0  0  0  0  0  0  0  0
    3.2345   -1.1697   -0.4276 C   0  0  0  0  0  0  0  0  0  0  0  0
    4.6761   -1.3235   -0.5575 C   0  0  0  0  0  0  0  0  0  0  0  0
    5.3567   -2.4149   -0.9396 N   0  0  0  0  0  0  0  0  0  0  0  0
    6.6604   -2.0953   -0.9127 N   0  0  0  0  0  0  0  0  0  0  0  0
    6.7666   -0.8202   -0.5171 C   0  0  0  0  0  0  0  0  0  0  0  0
    7.9885   -0.0423   -0.3412 C   0  0  0  0  0  0  0  0  0  0  0  0
    7.9175    1.2700    0.0733 C   0  0  0  0  0  0  0  0  0  0  0  0
    9.0729    2.0039    0.2404 C   0  0  0  0  0  0  0  0  0  0  0  0
   10.3196    1.4646    0.0041 C   0  0  0  0  0  0  0  0  0  0  0  0
   10.4100    0.1471   -0.4132 C   0  0  0  0  0  0  0  0  0  0  0  0
    9.2370   -0.5844   -0.5786 C   0  0  0  0  0  0  0  0  0  0  0  0
    5.5563   -0.4008   -0.3166 O   0  0  0  0  0  0  0  0  0  0  0  0
    2.3626   -2.2071   -0.7049 C   0  0  0  0  0  0  0  0  0  0  0  0
    1.0093   -2.0908   -0.5915 C   0  0  0  0  0  0  0  0  0  0  0  0
   -1.7967   -1.9190   -0.5150 N   0  0  0  0  0  0  0  0  0  0  0  0
   -3.0852   -1.6875   -0.2829 C   0  0  0  0  0  0  0  0  0  0  0  0
   -4.1594   -2.6064   -0.6503 C   0  0  0  0  0  0  0  0  0  0  0  0
   -4.2963   -3.8186   -0.0061 C   0  0  0  0  0  0  0  0  0  0  0  0
   -5.2942   -4.7167   -0.3262 C   0  0  0  0  0  0  0  0  0  0  0  0
   -6.1865   -4.3916   -1.3252 C   0  0  0  0  0  0  0  0  0  0  0  0
   -6.0902   -3.1999   -1.9927 C   0  0  0  0  0  0  0  0  0  0  0  0
   -5.0651   -2.3120   -1.6420 C   0  0  0  0  0  0  0  0  0  0  0  0
   -3.1345   -0.4771    0.3324 C   0  0  0  0  0  0  0  0  0  0  0  0
   -4.3604    0.2060    0.7854 C   0  0  0  0  0  0  0  0  0  0  0  0
   -4.6273    0.2658    2.1439 C   0  0  0  0  0  0  0  0  0  0  0  0
   -5.7516    0.8931    2.6386 C   0  0  0  0  0  0  0  0  0  0  0  0
   -6.6210    1.4704    1.7401 C   0  0  0  0  0  0  0  0  0  0  0  0
   -6.3823    1.4274    0.3831 C   0  0  0  0  0  0  0  0  0  0  0  0
   -5.2531    0.7942   -0.0711 C   0  0  0  0  0  0  0  0  0  0  0  0
   -2.1849    5.4359    0.2551 H   0  0  0  0  0  0  0  0  0  0  0  0
   -0.9139    4.7117   -0.8722 H   0  0  0  0  0  0  0  0  0  0  0  0
   -0.4535    5.6565    0.5841 H   0  0  0  0  0  0  0  0  0  0  0  0
   -1.9601    3.7502    1.8501 H   0  0  0  0  0  0  0  0  0  0  0  0
   -0.2265    3.5084    1.4061 H   0  0  0  0  0  0  0  0  0  0  0  0
   -0.7790    2.3749   -0.6282 H   0  0  0  0  0  0  0  0  0  0  0  0
   -2.5176    2.5449   -0.4019 H   0  0  0  0  0  0  0  0  0  0  0  0
   -0.7246    1.3178    1.7702 H   0  0  0  0  0  0  0  0  0  0  0  0
   -2.4595    1.4376    1.8421 H   0  0  0  0  0  0  0  0  0  0  0  0
    0.9028    1.0743    0.3905 H   0  0  0  0  0  0  0  0  0  0  0  0
    3.3107    0.8362    0.1994 H   0  0  0  0  0  0  0  0  0  0  0  0
    6.9521    1.7074    0.2624 H   0  0  0  0  0  0  0  0  0  0  0  0
    8.9831    3.0205    0.5638 H   0  0  0  0  0  0  0  0  0  0  0  0
   11.2293    2.0250    0.1299 H   0  0  0  0  0  0  0  0  0  0  0  0
   11.3872   -0.2844   -0.6012 H   0  0  0  0  0  0  0  0  0  0  0  0
    9.2850   -1.6018   -0.8997 H   0  0  0  0  0  0  0  0  0  0  0  0
    2.7730   -3.1523   -1.0258 H   0  0  0  0  0  0  0  0  0  0  0  0
    0.3966   -2.9420   -0.8236 H   0  0  0  0  0  0  0  0  0  0  0  0
   -3.5836   -4.0776    0.7912 H   0  0  0  0  0  0  0  0  0  0  0  0
   -5.4208   -5.6605    0.1578 H   0  0  0  0  0  0  0  0  0  0  0  0
   -6.9946   -5.0558   -1.6239 H   0  0  0  0  0  0  0  0  0  0  0  0
   -6.7775   -2.9462   -2.7637 H   0  0  0  0  0  0  0  0  0  0  0  0
   -4.9770   -1.3754   -2.1601 H   0  0  0  0  0  0  0  0  0  0  0  0
   -3.9108   -0.2057    2.8174 H   0  0  0  0  0  0  0  0  0  0  0  0
   -5.9695    0.9458    3.6960 H   0  0  0  0  0  0  0  0  0  0  0  0
   -7.5216    1.9772    2.0809 H   0  0  0  0  0  0  0  0  0  0  0  0
   -7.1009    1.9008   -0.3053 H   0  0  0  0  0  0  0  0  0  0  0  0
   -5.0682    0.7653   -1.1293 H   0  0  0  0  0  0  0  0  0  0  0  0
  1  2  1  0
  2  3  1  0
  3  4  1  0
  4  5  1  0
  5  6  1  0
  6  7  1  0
  7  8  2  0
  8  9  1  0
  9 10  2  0
 10 11  1  0
 11 12  2  0
 12 13  1  0
 13 14  2  0
 14 15  1  0
 15 16  2  0
 16 17  1  0
 17 18  2  0
 18 19  1  0
 19 20  2  0
 14 21  1  0
 10 22  1  0
 22 23  2  0
  6 24  2  0
 24 25  1  0
 25 26  1  0
 26 27  2  0
 27 28  1  0
 28 29  2  0
 29 30  1  0
 30 31  2  0
 25 32  2  0
 32 33  1  0
 33 34  2  0
 34 35  1  0
 35 36  2  0
 36 37  1  0
 37 38  2  0
 32  5  1  0
 38 33  1  0
 23  7  1  0
 31 26  1  0
 21 11  1  0
 20 15  1  0
  1 39  1  0
  1 40  1  0
  1 41  1  0
  2 42  1  0
  2 43  1  0
  3 44  1  0
  3 45  1  0
  4 46  1  0
  4 47  1  0
  8 48  1  0
  9 49  1  0
 16 50  1  0
 17 51  1  0
 18 52  1  0
 19 53  1  0
 20 54  1  0
 22 55  1  0
 23 56  1  0
 27 57  1  0
 28 58  1  0
 29 59  1  0
 30 60  1  0
 31 61  1  0
 34 62  1  0
 35 63  1  0
 36 64  1  0
 37 65  1  0
 38 66  1  0
M  END
