
     RDKit          3D

 36 39  0  0  0  0  0  0  0  0999 V2000
    1.7558   -1.4328    1.4432 O   0  0  0  0  0  0  0  0  0  0  0  0
    1.8428   -0.3947    0.6787 C   0  0  0  0  0  0  0  0  0  0  0  0
    0.6366    0.2135    0.1535 C   0  0  0  0  0  0  0  0  0  0  0  0
   -0.5993   -0.1297    0.3321 C   0  0  0  0  0  0  0  0  0  0  0  0
   -1.1773   -1.5094    1.3198 S   0  0  0  0  0  0  0  0  0  0  0  0
   -2.9145   -1.2565    1.0255 C   0  0  0  0  0  0  0  0  0  0  0  0
   -4.0114   -1.9513    1.4734 C   0  0  0  0  0  0  0  0  0  0  0  0
   -5.3030   -1.5661    1.1084 C   0  0  0  0  0  0  0  0  0  0  0  0
   -5.4388   -0.4722    0.2889 C   0  0  0  0  0  0  0  0  0  0  0  0
   -7.0422    0.0785   -0.2179 S   0  0  0  0  0  6  0  0  0  0  0  0
   -6.9367    1.5647   -0.4206 O   0  0  0  0  0  0  0  0  0  0  0  0
   -8.0485   -0.1863    0.8681 O   0  0  0  0  0  0  0  0  0  0  0  0
   -7.5036   -0.6679   -1.6442 O   0  0  0  0  0  0  0  0  0  0  0  0
   -4.3359    0.2036   -0.1446 C   0  0  0  0  0  0  0  0  0  0  0  0
   -3.0276   -0.1686    0.2118 C   0  0  0  0  0  0  0  0  0  0  0  0
   -1.8196    0.4687   -0.1866 C   0  0  0  0  0  0  0  0  0  0  0  0
   -1.7199    1.5051   -0.9491 O   0  0  0  0  0  0  0  0  0  0  0  0
    1.2149    1.5832   -0.8267 S   0  0  0  0  0  0  0  0  0  0  0  0
    2.9574    1.3243   -0.5276 C   0  0  0  0  0  0  0  0  0  0  0  0
    4.0431    2.0308   -0.9849 C   0  0  0  0  0  0  0  0  0  0  0  0
    5.3448    1.6614   -0.6309 C   0  0  0  0  0  0  0  0  0  0  0  0
    5.4416    0.5636    0.1891 C   0  0  0  0  0  0  0  0  0  0  0  0
    7.0573    0.0637    0.6591 S   0  0  0  0  0  6  0  0  0  0  0  0
    7.9742    1.2600    0.6586 O   0  0  0  0  0  0  0  0  0  0  0  0
    7.0394   -0.6105    2.0042 O   0  0  0  0  0  0  0  0  0  0  0  0
    7.6228   -1.0339   -0.4762 O   0  0  0  0  0  0  0  0  0  0  0  0
    4.3686   -0.1303    0.6378 C   0  0  0  0  0  0  0  0  0  0  0  0
    3.0575    0.2349    0.2864 C   0  0  0  0  0  0  0  0  0  0  0  0
   -3.9279   -2.8074    2.1135 H   0  0  0  0  0  0  0  0  0  0  0  0
   -6.1958   -2.0754    1.4313 H   0  0  0  0  0  0  0  0  0  0  0  0
   -8.4354   -0.9775   -1.5403 H   0  0  0  0  0  0  0  0  0  0  0  0
   -4.5198    1.0711   -0.7992 H   0  0  0  0  0  0  0  0  0  0  0  0
    3.9408    2.8883   -1.6271 H   0  0  0  0  0  0  0  0  0  0  0  0
    6.2204    2.1926   -0.9711 H   0  0  0  0  0  0  0  0  0  0  0  0
    7.8729   -0.5544   -1.3058 H   0  0  0  0  0  0  0  0  0  0  0  0
    4.5663   -0.9829    1.2822 H   0  0  0  0  0  0  0  0  0  0  0  0
  1  2  2  0
  2  3  1  0
  3  4  2  0
  4  5  1  0
  5  6  1  0
  6  7  2  0
  7  8  1  0
  8  9  2  0
  9 10  1  0
 10 11  2  0
 10 12  2  0
 10 13  1  0
  9 14  1  0
 14 15  2  0
 15 16  1  0
 16 17  2  0
  3 18  1  0
 18 19  1  0
 19 20  2  0
 20 21  1  0
 21 22  2  0
 22 23  1  0
 23 24  2  0
 23 25  2  0
 23 26  1  0
 22 27  1  0
 27 28  2  0
 28  2  1  0
 16  4  1  0
 28 19  1  0
 15  6  1  0
  7 29  1  0
  8 30  1  0
 13 31  1  0
 14 32  1  0
 20 33  1  0
 21 34  1  0
 26 35  1  0
 27 36  1  0
M  END
