
     RDKit          3D

 53 56  0  0  0  0  0  0  0  0999 V2000
   -4.9916   -1.7079    2.0244 C   0  0  0  0  0  0  0  0  0  0  0  0
   -4.5667   -2.3303    0.7079 C   0  0  0  0  0  0  0  0  0  0  0  0
   -3.3438   -1.6992    0.3122 O   0  0  0  0  0  0  0  0  0  0  0  0
   -3.2540   -0.3576    0.0846 C   0  0  0  0  0  0  0  0  0  0  0  0
   -4.3378    0.3089    0.2473 O   0  0  0  0  0  0  0  0  0  0  0  0
   -2.0406    0.3421   -0.3201 C   0  0  0  0  0  0  0  0  0  0  0  0
   -0.8240   -0.2725   -0.5163 C   0  0  0  0  0  0  0  0  0  0  0  0
   -0.4580   -1.6754   -0.3814 C   0  0  0  0  0  0  0  0  0  0  0  0
   -0.5222   -2.5042   -1.3203 O   0  0  0  0  0  0  0  0  0  0  0  0
   -0.0129   -2.1273    0.8528 O   0  0  0  0  0  0  0  0  0  0  0  0
    0.3656   -3.4741    1.0732 C   0  0  0  0  0  0  0  0  0  0  0  0
    0.1186    0.6810   -0.9017 C   0  0  0  0  0  0  0  0  0  0  0  0
    1.5281    0.5159   -1.2307 C   0  0  0  0  0  0  0  0  0  0  0  0
    2.3673   -0.0373   -0.2992 C   0  0  0  0  0  0  0  0  0  0  0  0
    3.7073   -0.1592   -0.6679 C   0  0  0  0  0  0  0  0  0  0  0  0
    4.6412   -0.6998    0.1941 C   0  0  0  0  0  0  0  0  0  0  0  0
    5.9697   -0.8491   -0.0963 C   0  0  0  0  0  0  0  0  0  0  0  0
    6.9034   -1.3822    0.7500 O   0  0  0  0  0  0  0  0  0  0  0  0
    6.6822   -1.8621    2.0401 C   0  0  0  0  0  0  0  0  0  0  0  0
    6.3709   -0.4124   -1.3643 C   0  0  0  0  0  0  0  0  0  0  0  0
    5.4589    0.1314   -2.2445 C   0  0  0  0  0  0  0  0  0  0  0  0
    4.1140    0.2642   -1.9037 C   0  0  0  0  0  0  0  0  0  0  0  0
    3.2798    0.7991   -2.7947 O   0  0  0  0  0  0  0  0  0  0  0  0
    2.0171    0.9241   -2.4704 C   0  0  0  0  0  0  0  0  0  0  0  0
    1.1523    1.4199   -3.2495 O   0  0  0  0  0  0  0  0  0  0  0  0
   -0.5915    1.8490   -0.9193 N   0  0  0  0  0  0  0  0  0  0  0  0
   -1.8479    1.6259   -0.5762 N   0  0  0  0  0  0  0  0  0  0  0  0
   -2.8443    2.6622   -0.5000 C   0  0  0  0  0  0  0  0  0  0  0  0
   -2.8012    3.5908    0.5346 C   0  0  0  0  0  0  0  0  0  0  0  0
   -3.7731    4.5688    0.5808 C   0  0  0  0  0  0  0  0  0  0  0  0
   -4.7724    4.6281   -0.3808 C   0  0  0  0  0  0  0  0  0  0  0  0
   -4.8326    3.7261   -1.4047 C   0  0  0  0  0  0  0  0  0  0  0  0
   -3.8420    2.7497   -1.4300 C   0  0  0  0  0  0  0  0  0  0  0  0
   -4.1284   -1.1999    2.5246 H   0  0  0  0  0  0  0  0  0  0  0  0
   -5.8253   -0.9933    1.8400 H   0  0  0  0  0  0  0  0  0  0  0  0
   -5.3550   -2.4664    2.7447 H   0  0  0  0  0  0  0  0  0  0  0  0
   -4.4201   -3.4069    0.7909 H   0  0  0  0  0  0  0  0  0  0  0  0
   -5.3433   -2.1233   -0.0825 H   0  0  0  0  0  0  0  0  0  0  0  0
    1.3326   -3.4954    1.6278 H   0  0  0  0  0  0  0  0  0  0  0  0
   -0.3864   -3.9991    1.6790 H   0  0  0  0  0  0  0  0  0  0  0  0
    0.4660   -4.0278    0.1003 H   0  0  0  0  0  0  0  0  0  0  0  0
    2.0653   -0.3666    0.6616 H   0  0  0  0  0  0  0  0  0  0  0  0
    4.2974   -1.0252    1.1667 H   0  0  0  0  0  0  0  0  0  0  0  0
    5.6280   -2.2188    2.1615 H   0  0  0  0  0  0  0  0  0  0  0  0
    7.3275   -2.7457    2.2981 H   0  0  0  0  0  0  0  0  0  0  0  0
    6.8693   -1.1158    2.8427 H   0  0  0  0  0  0  0  0  0  0  0  0
    7.4229   -0.5176   -1.6299 H   0  0  0  0  0  0  0  0  0  0  0  0
    5.7549    0.4734   -3.2310 H   0  0  0  0  0  0  0  0  0  0  0  0
   -2.0181    3.5404    1.2825 H   0  0  0  0  0  0  0  0  0  0  0  0
   -3.7419    5.2960    1.3888 H   0  0  0  0  0  0  0  0  0  0  0  0
   -5.5204    5.4173   -0.3040 H   0  0  0  0  0  0  0  0  0  0  0  0
   -5.5938    3.7385   -2.1722 H   0  0  0  0  0  0  0  0  0  0  0  0
   -3.8512    1.9992   -2.2375 H   0  0  0  0  0  0  0  0  0  0  0  0
  1  2  1  0
  2  3  1  0
  3  4  1  0
  4  5  2  0
  4  6  1  0
  6  7  2  0
  7  8  1  0
  8  9  2  0
  8 10  1  0
 10 11  1  0
  7 12  1  0
 12 13  1  0
 13 14  2  0
 14 15  1  0
 15 16  2  0
 16 17  1  0
 17 18  1  0
 18 19  1  0
 17 20  2  0
 20 21  1  0
 21 22  2  0
 22 23  1  0
 23 24  1  0
 24 25  2  0
 12 26  2  0
 26 27  1  0
 27 28  1  0
 28 29  2  0
 29 30  1  0
 30 31  2  0
 31 32  1  0
 32 33  2  0
 27  6  1  0
 33 28  1  0
 24 13  1  0
 22 15  1  0
  1 34  1  0
  1 35  1  0
  1 36  1  0
  2 37  1  0
  2 38  1  0
 11 39  1  0
 11 40  1  0
 11 41  1  0
 14 42  1  0
 16 43  1  0
 19 44  1  0
 19 45  1  0
 19 46  1  0
 20 47  1  0
 21 48  1  0
 29 49  1  0
 30 50  1  0
 31 51  1  0
 32 52  1  0
 33 53  1  0
M  END
