
     RDKit          3D

 66 74  0  0  0  0  0  0  0  0999 V2000
   -2.3735   -3.6911    0.5889 C   0  0  0  0  0  0  0  0  0  0  0  0
   -1.1604   -4.2721    0.4877 C   0  0  0  0  0  0  0  0  0  0  0  0
   -0.3049   -3.2699   -0.0983 C   0  0  0  0  0  0  0  0  0  0  0  0
   -1.0424   -2.1576   -0.3123 N   0  0  0  0  0  0  0  0  0  0  0  0
   -2.3114   -2.3418    0.0844 C   0  0  0  0  0  0  0  0  0  0  0  0
   -3.1871   -1.2425   -0.0377 C   0  0  0  0  0  0  0  0  0  0  0  0
   -4.6109   -1.6183   -0.1532 C   0  0  0  0  0  0  0  0  0  0  0  0
   -5.6655   -0.7309   -0.2228 C   0  0  0  0  0  0  0  0  0  0  0  0
   -6.8397   -1.4673   -0.3222 C   0  0  0  0  0  0  0  0  0  0  0  0
   -6.4280   -2.7797   -0.3067 C   0  0  0  0  0  0  0  0  0  0  0  0
   -5.1345   -2.7985   -0.2077 O   0  0  0  0  0  0  0  0  0  0  0  0
   -2.7833    0.1003   -0.0786 C   0  0  0  0  0  0  0  0  0  0  0  0
   -3.3196    0.9327   -1.0841 C   0  0  0  0  0  0  0  0  0  0  0  0
   -2.7235    2.1540   -0.9177 C   0  0  0  0  0  0  0  0  0  0  0  0
   -1.8506    2.0122    0.1806 C   0  0  0  0  0  0  0  0  0  0  0  0
   -1.8994    0.7768    0.6766 N   0  0  0  0  0  0  0  0  0  0  0  0
   -1.0547    3.1292    0.5388 C   0  0  0  0  0  0  0  0  0  0  0  0
   -1.6011    4.4748    0.5188 C   0  0  0  0  0  0  0  0  0  0  0  0
   -0.9224    5.6364    0.7051 C   0  0  0  0  0  0  0  0  0  0  0  0
   -1.8297    6.6721    0.6000 C   0  0  0  0  0  0  0  0  0  0  0  0
   -3.0296    6.0786    0.3507 C   0  0  0  0  0  0  0  0  0  0  0  0
   -2.8695    4.7837    0.3073 O   0  0  0  0  0  0  0  0  0  0  0  0
    0.2914    3.0135    0.9360 C   0  0  0  0  0  0  0  0  0  0  0  0
    1.0328    2.0661    0.3362 N   0  0  0  0  0  0  0  0  0  0  0  0
    2.2868    2.0411    0.8797 C   0  0  0  0  0  0  0  0  0  0  0  0
    3.1918    1.0781    0.4286 C   0  0  0  0  0  0  0  0  0  0  0  0
    4.5971    1.4688    0.3586 C   0  0  0  0  0  0  0  0  0  0  0  0
    5.0996    2.7213    0.5538 C   0  0  0  0  0  0  0  0  0  0  0  0
    6.4899    2.6798    0.3958 C   0  0  0  0  0  0  0  0  0  0  0  0
    6.7482    1.3565    0.1037 C   0  0  0  0  0  0  0  0  0  0  0  0
    5.6394    0.6969    0.0917 O   0  0  0  0  0  0  0  0  0  0  0  0
    2.8013   -0.2190   -0.0058 C   0  0  0  0  0  0  0  0  0  0  0  0
    3.3921   -0.7124   -1.1834 C   0  0  0  0  0  0  0  0  0  0  0  0
    2.7954   -1.9229   -1.4144 C   0  0  0  0  0  0  0  0  0  0  0  0
    1.8736   -2.1039   -0.3668 C   0  0  0  0  0  0  0  0  0  0  0  0
    1.8902   -1.0669    0.4832 N   0  0  0  0  0  0  0  0  0  0  0  0
    1.0575   -3.2604   -0.4066 C   0  0  0  0  0  0  0  0  0  0  0  0
    1.6177   -4.5367   -0.8614 C   0  0  0  0  0  0  0  0  0  0  0  0
    1.0102   -5.7034   -1.1836 C   0  0  0  0  0  0  0  0  0  0  0  0
    1.9936   -6.5908   -1.5541 C   0  0  0  0  0  0  0  0  0  0  0  0
    3.1853   -5.9228   -1.4440 C   0  0  0  0  0  0  0  0  0  0  0  0
    2.9260   -4.7244   -1.0365 O   0  0  0  0  0  0  0  0  0  0  0  0
    2.3643    3.0493    1.9063 C   0  0  0  0  0  0  0  0  0  0  0  0
    1.1485    3.6242    1.9231 C   0  0  0  0  0  0  0  0  0  0  0  0
   -3.2644   -4.1487    0.9831 H   0  0  0  0  0  0  0  0  0  0  0  0
   -0.9486   -5.2786    0.8166 H   0  0  0  0  0  0  0  0  0  0  0  0
   -5.6732    0.3422   -0.2030 H   0  0  0  0  0  0  0  0  0  0  0  0
   -7.8615   -1.1167   -0.3964 H   0  0  0  0  0  0  0  0  0  0  0  0
   -7.0971   -3.6266   -0.3685 H   0  0  0  0  0  0  0  0  0  0  0  0
   -4.0646    0.6908   -1.8635 H   0  0  0  0  0  0  0  0  0  0  0  0
   -2.9168    3.0509   -1.5361 H   0  0  0  0  0  0  0  0  0  0  0  0
   -1.3482    0.3769    1.5644 H   0  0  0  0  0  0  0  0  0  0  0  0
    0.1571    5.7644    0.8902 H   0  0  0  0  0  0  0  0  0  0  0  0
   -1.5537    7.7197    0.7084 H   0  0  0  0  0  0  0  0  0  0  0  0
   -3.9635    6.6073    0.2121 H   0  0  0  0  0  0  0  0  0  0  0  0
    4.5756    3.6283    0.7754 H   0  0  0  0  0  0  0  0  0  0  0  0
    7.1893    3.5037    0.4851 H   0  0  0  0  0  0  0  0  0  0  0  0
    7.7382    0.9695   -0.0805 H   0  0  0  0  0  0  0  0  0  0  0  0
    4.1764   -0.2618   -1.8168 H   0  0  0  0  0  0  0  0  0  0  0  0
    3.0311   -2.5866   -2.2648 H   0  0  0  0  0  0  0  0  0  0  0  0
    1.2975   -0.9584    1.4206 H   0  0  0  0  0  0  0  0  0  0  0  0
   -0.0408   -5.8493   -1.1570 H   0  0  0  0  0  0  0  0  0  0  0  0
    1.8926   -7.6079   -1.8715 H   0  0  0  0  0  0  0  0  0  0  0  0
    4.1623   -6.3572   -1.6690 H   0  0  0  0  0  0  0  0  0  0  0  0
    3.1985    3.2947    2.5430 H   0  0  0  0  0  0  0  0  0  0  0  0
    0.8228    4.4307    2.5906 H   0  0  0  0  0  0  0  0  0  0  0  0
  1  2  2  0
  2  3  1  0
  3  4  2  0
  4  5  1  0
  5  6  2  0
  6  7  1  0
  7  8  2  0
  8  9  1  0
  9 10  2  0
 10 11  1  0
  6 12  1  0
 12 13  2  0
 13 14  1  0
 14 15  2  0
 15 16  1  0
 15 17  1  0
 17 18  1  0
 18 19  2  0
 19 20  1  0
 20 21  2  0
 21 22  1  0
 17 23  2  0
 23 24  1  0
 24 25  2  0
 25 26  1  0
 26 27  1  0
 27 28  2  0
 28 29  1  0
 29 30  2  0
 30 31  1  0
 26 32  2  0
 32 33  1  0
 33 34  2  0
 34 35  1  0
 35 36  1  0
 35 37  2  0
 37 38  1  0
 38 39  2  0
 39 40  1  0
 40 41  2  0
 41 42  1  0
 25 43  1  0
 43 44  2  0
  5  1  1  0
 11  7  1  0
 16 12  1  0
 22 18  1  0
 44 23  1  0
 37  3  1  0
 42 38  1  0
 31 27  1  0
 36 32  1  0
  1 45  1  0
  2 46  1  0
  8 47  1  0
  9 48  1  0
 10 49  1  0
 13 50  1  0
 14 51  1  0
 16 52  1  0
 19 53  1  0
 20 54  1  0
 21 55  1  0
 28 56  1  0
 29 57  1  0
 30 58  1  0
 33 59  1  0
 34 60  1  0
 36 61  1  0
 39 62  1  0
 40 63  1  0
 41 64  1  0
 43 65  1  0
 44 66  1  0
M  END
