
     RDKit          3D

 82 87  0  0  0  0  0  0  0  0999 V2000
   -4.5167   -4.9770    2.1711 C   0  0  0  0  0  0  0  0  0  0  0  0
   -5.2171   -4.0058    1.2447 C   0  0  0  0  0  0  0  0  0  0  0  0
   -4.3907   -2.7950    0.9984 C   0  0  0  0  0  0  0  0  0  0  0  0
   -4.8122   -1.5612    1.3169 C   0  0  0  0  0  0  0  0  0  0  0  0
   -6.1248   -1.2097    1.9450 C   0  0  0  0  0  0  0  0  0  0  0  0
   -3.7549   -0.6413    0.9390 C   0  0  0  0  0  0  0  0  0  0  0  0
   -3.5745    0.7487    1.0140 C   0  0  0  0  0  0  0  0  0  0  0  0
   -2.4016    1.4412    0.6558 C   0  0  0  0  0  0  0  0  0  0  0  0
   -1.1109    1.1699    0.8649 N   0  0  0  0  0  0  0  0  0  0  0  0
   -0.3959    2.1384    0.2756 C   0  0  0  0  0  0  0  0  0  0  0  0
    0.9981    2.3201    0.1771 C   0  0  0  0  0  0  0  0  0  0  0  0
    2.0031    1.4063   -0.0104 C   0  0  0  0  0  0  0  0  0  0  0  0
    1.8426    0.1399    0.4442 N   0  0  0  0  0  0  0  0  0  0  0  0
    2.7558   -0.6484   -0.2356 C   0  0  0  0  0  0  0  0  0  0  0  0
    2.3612   -1.8511   -0.7538 C   0  0  0  0  0  0  0  0  0  0  0  0
    1.1384   -2.4581   -0.6715 C   0  0  0  0  0  0  0  0  0  0  0  0
    0.0713   -2.4692    0.1215 N   0  0  0  0  0  0  0  0  0  0  0  0
   -0.8331   -3.2756   -0.4578 C   0  0  0  0  0  0  0  0  0  0  0  0
   -2.1533   -3.6011   -0.0748 C   0  0  0  0  0  0  0  0  0  0  0  0
   -3.0793   -2.6923    0.4211 C   0  0  0  0  0  0  0  0  0  0  0  0
   -2.7574   -1.3776    0.4141 N   0  0  0  0  0  0  0  0  0  0  0  0
   -0.3162   -3.8020   -1.6628 C   0  0  0  0  0  0  0  0  0  0  0  0
   -0.9282   -4.7442   -2.6450 C   0  0  0  0  0  0  0  0  0  0  0  0
    0.9502   -3.2628   -1.7775 C   0  0  0  0  0  0  0  0  0  0  0  0
    2.1661   -3.2420   -2.6131 C   0  0  0  0  0  0  0  0  0  0  0  0
    2.2796   -3.5020   -3.8033 O   0  0  0  0  0  0  0  0  0  0  0  0
    3.1997   -2.8148   -1.5847 C   0  0  0  0  0  0  0  0  0  0  0  0
    3.9567    0.1929   -0.1141 C   0  0  1  0  0  0  0  0  0  0  0  0
    5.1026   -0.2969   -0.9396 C   0  0  0  0  0  0  0  0  0  0  0  0
    6.3239    0.5534   -0.7456 C   0  0  0  0  0  0  0  0  0  0  0  0
    6.8444    0.5681    0.6393 C   0  0  0  0  0  0  0  0  0  0  0  0
    6.3591   -0.0977    1.5813 O   0  0  0  0  0  0  0  0  0  0  0  0
    7.9474    1.3624    0.9611 O   0  0  0  0  0  0  0  0  0  0  0  0
    8.4768    1.4065    2.2705 C   0  0  0  0  0  0  0  0  0  0  0  0
    3.3279    1.4693   -0.6487 C   0  0  2  0  0  0  0  0  0  0  0  0
    4.0886    2.7178   -0.2974 C   0  0  0  0  0  0  0  0  0  0  0  0
   -1.2585    3.0791   -0.3375 C   0  0  0  0  0  0  0  0  0  0  0  0
   -0.8823    4.3113   -1.1311 C   0  0  0  0  0  0  0  0  0  0  0  0
   -2.5276    2.6387   -0.0956 C   0  0  0  0  0  0  0  0  0  0  0  0
   -3.7805    3.2769   -0.5633 C   0  0  0  0  0  0  0  0  0  0  0  0
   -4.1164    4.4948   -0.3361 C   0  0  0  0  0  0  0  0  0  0  0  0
   -3.3057    5.4414    0.4299 C   0  0  0  0  0  0  0  0  0  0  0  0
   -5.3694    4.9766   -0.8625 N   0  0  0  0  0  4  0  0  0  0  0  0
   -5.4972    5.1043   -2.0842 O   0  0  0  0  0  0  0  0  0  0  0  0
   -6.4232    5.2969   -0.0416 O   0  0  0  0  0  1  0  0  0  0  0  0
   -4.1200   -5.8560    1.6123 H   0  0  0  0  0  0  0  0  0  0  0  0
   -3.6204   -4.4430    2.5722 H   0  0  0  0  0  0  0  0  0  0  0  0
   -5.1898   -5.3211    2.9740 H   0  0  0  0  0  0  0  0  0  0  0  0
   -6.2289   -3.7603    1.5850 H   0  0  0  0  0  0  0  0  0  0  0  0
   -5.3235   -4.5111    0.2610 H   0  0  0  0  0  0  0  0  0  0  0  0
   -6.1235   -1.5934    2.9982 H   0  0  0  0  0  0  0  0  0  0  0  0
   -6.2090   -0.1236    2.0043 H   0  0  0  0  0  0  0  0  0  0  0  0
   -6.9427   -1.6718    1.3800 H   0  0  0  0  0  0  0  0  0  0  0  0
   -4.4625    1.2566    1.3668 H   0  0  0  0  0  0  0  0  0  0  0  0
   -0.6975    0.3084    1.4508 H   0  0  0  0  0  0  0  0  0  0  0  0
    1.3951    3.3668    0.2515 H   0  0  0  0  0  0  0  0  0  0  0  0
    0.0381   -1.9167    1.0666 H   0  0  0  0  0  0  0  0  0  0  0  0
   -2.5428   -4.6045   -0.1636 H   0  0  0  0  0  0  0  0  0  0  0  0
   -0.1817   -5.4359   -3.0482 H   0  0  0  0  0  0  0  0  0  0  0  0
   -1.6976   -5.3422   -2.1186 H   0  0  0  0  0  0  0  0  0  0  0  0
   -1.4666   -4.1897   -3.4480 H   0  0  0  0  0  0  0  0  0  0  0  0
    3.9696   -2.3538   -2.1734 H   0  0  0  0  0  0  0  0  0  0  0  0
    3.4479   -3.7180   -1.0307 H   0  0  0  0  0  0  0  0  0  0  0  0
    4.2255    0.3989    0.9420 H   0  0  0  0  0  0  0  0  0  0  0  0
    4.8712   -0.2401   -2.0292 H   0  0  0  0  0  0  0  0  0  0  0  0
    5.3644   -1.3093   -0.5819 H   0  0  0  0  0  0  0  0  0  0  0  0
    7.1899    0.1283   -1.3640 H   0  0  0  0  0  0  0  0  0  0  0  0
    6.2442    1.5867   -1.1112 H   0  0  0  0  0  0  0  0  0  0  0  0
    7.9369    2.2110    2.8244 H   0  0  0  0  0  0  0  0  0  0  0  0
    8.3055    0.4616    2.8174 H   0  0  0  0  0  0  0  0  0  0  0  0
    9.5417    1.6697    2.2850 H   0  0  0  0  0  0  0  0  0  0  0  0
    3.1446    1.3933   -1.7462 H   0  0  0  0  0  0  0  0  0  0  0  0
    3.3183    3.4819    0.0060 H   0  0  0  0  0  0  0  0  0  0  0  0
    4.5132    3.1208   -1.2240 H   0  0  0  0  0  0  0  0  0  0  0  0
    4.7890    2.5145    0.5039 H   0  0  0  0  0  0  0  0  0  0  0  0
   -1.7171    4.5649   -1.7932 H   0  0  0  0  0  0  0  0  0  0  0  0
    0.0016    3.9964   -1.7672 H   0  0  0  0  0  0  0  0  0  0  0  0
   -0.6113    5.1578   -0.5009 H   0  0  0  0  0  0  0  0  0  0  0  0
   -4.4499    2.6359   -1.1441 H   0  0  0  0  0  0  0  0  0  0  0  0
   -2.5542    4.9862    1.0828 H   0  0  0  0  0  0  0  0  0  0  0  0
   -3.9704    6.0275    1.1289 H   0  0  0  0  0  0  0  0  0  0  0  0
   -2.8535    6.1943   -0.2664 H   0  0  0  0  0  0  0  0  0  0  0  0
  1  2  1  0
  2  3  1  0
  3  4  2  0
  4  5  1  0
  4  6  1  0
  6  7  2  0
  7  8  1  0
  8  9  1  0
  9 10  1  0
 10 11  1  0
 11 12  2  0
 12 13  1  0
 13 14  2  0
 14 15  1  0
 15 16  2  0
 16 17  1  0
 17 18  1  0
 18 19  2  0
 19 20  1  0
 20 21  2  0
 18 22  1  0
 22 23  1  0
 22 24  2  0
 24 25  1  0
 25 26  2  0
 25 27  1  0
 14 28  1  0
 28 29  1  0
 29 30  1  0
 30 31  1  0
 31 32  2  0
 31 33  1  0
 33 34  1  0
 28 35  1  0
 35 36  1  0
 10 37  2  0
 37 38  1  0
 37 39  1  0
 39 40  1  0
 40 41  2  0
 41 42  1  0
 41 43  1  0
 43 44  2  0
 43 45  1  0
 20  3  1  0
 21  6  1  0
 39  8  2  0
 35 12  1  0
 27 15  1  0
 24 16  1  0
  1 46  1  0
  1 47  1  0
  1 48  1  0
  2 49  1  0
  2 50  1  0
  5 51  1  0
  5 52  1  0
  5 53  1  0
  7 54  1  0
  9 55  1  0
 11 56  1  0
 17 57  1  0
 19 58  1  0
 23 59  1  0
 23 60  1  0
 23 61  1  0
 27 62  1  0
 27 63  1  0
 28 64  1  1
 29 65  1  0
 29 66  1  0
 30 67  1  0
 30 68  1  0
 34 69  1  0
 34 70  1  0
 34 71  1  0
 35 72  1  6
 36 73  1  0
 36 74  1  0
 36 75  1  0
 38 76  1  0
 38 77  1  0
 38 78  1  0
 40 79  1  0
 42 80  1  0
 42 81  1  0
 42 82  1  0
M  CHG  2  43   1  45  -1
M  END
