
     RDKit          3D

 47 50  0  0  0  0  0  0  0  0999 V2000
   -6.0927   -1.7699   -0.6742 C   0  0  0  0  0  0  0  0  0  0  0  0
   -5.2167   -1.5932    0.5283 C   0  0  0  0  0  0  0  0  0  0  0  0
   -4.6489   -0.2643    0.4879 N   0  0  0  0  0  0  0  0  0  0  0  0
   -5.4786    0.8892    0.6705 C   0  0  0  0  0  0  0  0  0  0  0  0
   -4.6380    2.1498    0.5817 C   0  0  0  0  0  0  0  0  0  0  0  0
   -3.2690   -0.1171    0.2502 C   0  0  0  0  0  0  0  0  0  0  0  0
   -2.8545    0.2623   -1.0075 C   0  0  0  0  0  0  0  0  0  0  0  0
   -1.4936    0.3754   -1.2534 C   0  0  0  0  0  0  0  0  0  0  0  0
   -0.6125    0.1036   -0.2314 C   0  0  0  0  0  0  0  0  0  0  0  0
    0.7408    0.1976   -0.4365 C   0  0  0  0  0  0  0  0  0  0  0  0
    1.6932   -0.0722    0.5633 C   0  0  0  0  0  0  0  0  0  0  0  0
    3.0923    0.1013    0.2595 C   0  0  0  0  0  0  0  0  0  0  0  0
    3.4594    1.0020   -0.7345 N   0  0  0  0  0  0  0  0  0  0  0  0
    4.7668    0.9616   -0.8868 C   0  0  0  0  0  0  0  0  0  0  0  0
    5.6079    1.6470   -1.7305 C   0  0  0  0  0  0  0  0  0  0  0  0
    6.9532    1.4020   -1.6813 C   0  0  0  0  0  0  0  0  0  0  0  0
    7.4568    0.4710   -0.7878 C   0  0  0  0  0  0  0  0  0  0  0  0
    6.5931   -0.2041    0.0500 C   0  0  0  0  0  0  0  0  0  0  0  0
    5.2350    0.0444   -0.0013 C   0  0  0  0  0  0  0  0  0  0  0  0
    4.1881   -0.4934    0.7137 N   0  0  0  0  0  0  0  0  0  0  0  0
    4.3441   -1.5224    1.6967 C   0  0  0  0  0  0  0  0  0  0  0  0
    1.1807   -0.4343    1.7622 C   0  0  0  0  0  0  0  0  0  0  0  0
    1.9380   -0.6901    2.7276 O   0  0  0  0  0  0  0  0  0  0  0  0
   -0.1486   -0.5274    1.9638 O   0  0  0  0  0  0  0  0  0  0  0  0
   -1.0285   -0.2799    1.0379 C   0  0  0  0  0  0  0  0  0  0  0  0
   -2.3855   -0.3883    1.2729 C   0  0  0  0  0  0  0  0  0  0  0  0
   -5.6001   -2.4481   -1.4243 H   0  0  0  0  0  0  0  0  0  0  0  0
   -7.0565   -2.2680   -0.3866 H   0  0  0  0  0  0  0  0  0  0  0  0
   -6.3601   -0.8201   -1.1797 H   0  0  0  0  0  0  0  0  0  0  0  0
   -5.8019   -1.7445    1.4841 H   0  0  0  0  0  0  0  0  0  0  0  0
   -4.4176   -2.3805    0.5399 H   0  0  0  0  0  0  0  0  0  0  0  0
   -6.0330    0.8845    1.6294 H   0  0  0  0  0  0  0  0  0  0  0  0
   -6.2875    0.9230   -0.1258 H   0  0  0  0  0  0  0  0  0  0  0  0
   -5.3486    3.0287    0.6595 H   0  0  0  0  0  0  0  0  0  0  0  0
   -3.8823    2.2208    1.3803 H   0  0  0  0  0  0  0  0  0  0  0  0
   -4.1428    2.2664   -0.3876 H   0  0  0  0  0  0  0  0  0  0  0  0
   -3.5173    0.4783   -1.8298 H   0  0  0  0  0  0  0  0  0  0  0  0
   -1.1560    0.6770   -2.2390 H   0  0  0  0  0  0  0  0  0  0  0  0
    1.1000    0.4923   -1.4113 H   0  0  0  0  0  0  0  0  0  0  0  0
    5.2614    2.3831   -2.4438 H   0  0  0  0  0  0  0  0  0  0  0  0
    7.6460    1.9191   -2.3292 H   0  0  0  0  0  0  0  0  0  0  0  0
    8.5004    0.2662   -0.7342 H   0  0  0  0  0  0  0  0  0  0  0  0
    6.9523   -0.9296    0.7489 H   0  0  0  0  0  0  0  0  0  0  0  0
    3.5940   -2.3370    1.6033 H   0  0  0  0  0  0  0  0  0  0  0  0
    5.3411   -2.0457    1.4364 H   0  0  0  0  0  0  0  0  0  0  0  0
    4.5302   -1.1300    2.6891 H   0  0  0  0  0  0  0  0  0  0  0  0
   -2.7038   -0.6866    2.2606 H   0  0  0  0  0  0  0  0  0  0  0  0
  1  2  1  0
  2  3  1  0
  3  4  1  0
  4  5  1  0
  3  6  1  0
  6  7  2  0
  7  8  1  0
  8  9  2  0
  9 10  1  0
 10 11  2  0
 11 12  1  0
 12 13  2  0
 13 14  1  0
 14 15  2  0
 15 16  1  0
 16 17  2  0
 17 18  1  0
 18 19  2  0
 19 20  1  0
 20 21  1  0
 11 22  1  0
 22 23  2  0
 22 24  1  0
 24 25  1  0
 25 26  2  0
 26  6  1  0
 25  9  1  0
 20 12  1  0
 19 14  1  0
  1 27  1  0
  1 28  1  0
  1 29  1  0
  2 30  1  0
  2 31  1  0
  4 32  1  0
  4 33  1  0
  5 34  1  0
  5 35  1  0
  5 36  1  0
  7 37  1  0
  8 38  1  0
 10 39  1  0
 15 40  1  0
 16 41  1  0
 17 42  1  0
 18 43  1  0
 21 44  1  0
 21 45  1  0
 21 46  1  0
 26 47  1  0
M  END
