
     RDKit          3D

 49 53  0  0  0  0  0  0  0  0999 V2000
    7.8285   -2.2559   -0.1692 C   0  0  0  0  0  0  0  0  0  0  0  0
    6.6246   -2.7359    0.4271 O   0  0  0  0  0  0  0  0  0  0  0  0
    5.4472   -2.0344    0.3662 C   0  0  0  0  0  0  0  0  0  0  0  0
    5.3537   -0.8299   -0.2610 C   0  0  0  0  0  0  0  0  0  0  0  0
    4.1986   -0.1408   -0.3269 C   0  0  0  0  0  0  0  0  0  0  0  0
    3.0221   -0.6564    0.2707 C   0  0  0  0  0  0  0  0  0  0  0  0
    1.8325    0.1391    0.1347 C   0  0  0  0  0  0  0  0  0  0  0  0
    0.8686    0.8016    0.0252 C   0  0  0  0  0  0  0  0  0  0  0  0
   -0.3101    1.6150   -0.0838 C   0  0  0  0  0  0  0  0  0  0  0  0
   -0.0236    2.9619   -0.3675 N   0  0  0  0  0  0  0  0  0  0  0  0
   -0.9468    3.8486   -0.6392 C   0  0  0  0  0  0  0  0  0  0  0  0
   -0.6609    5.2054   -0.8659 C   0  0  0  0  0  0  0  0  0  0  0  0
   -1.6877    6.1162   -1.0889 C   0  0  0  0  0  0  0  0  0  0  0  0
   -3.0100    5.7062   -1.0933 C   0  0  0  0  0  0  0  0  0  0  0  0
   -3.2603    4.3686   -0.8684 C   0  0  0  0  0  0  0  0  0  0  0  0
   -2.2655    3.4289   -0.6463 C   0  0  0  0  0  0  0  0  0  0  0  0
   -2.5297    2.1527   -0.3730 N   0  0  0  0  0  0  0  0  0  0  0  0
   -1.5285    1.2091   -0.0733 C   0  0  0  0  0  0  0  0  0  0  0  0
   -2.0492   -0.0881    0.3428 C   0  0  0  0  0  0  0  0  0  0  0  0
   -2.8078   -0.0720    1.5859 C   0  0  0  0  0  0  0  0  0  0  0  0
   -3.5103   -1.1923    1.6868 N   0  0  0  0  0  0  0  0  0  0  0  0
   -4.5072   -1.5164    2.7110 C   0  0  0  0  0  0  0  0  0  0  0  0
   -3.2690   -1.9650    0.6170 C   0  0  0  0  0  0  0  0  0  0  0  0
   -3.7088   -3.2303    0.3021 C   0  0  0  0  0  0  0  0  0  0  0  0
   -3.2680   -3.8582   -0.8364 C   0  0  0  0  0  0  0  0  0  0  0  0
   -2.3778   -3.2005   -1.6467 C   0  0  0  0  0  0  0  0  0  0  0  0
   -1.9458   -1.9370   -1.3217 C   0  0  0  0  0  0  0  0  0  0  0  0
   -2.3702   -1.2665   -0.1918 C   0  0  0  0  0  0  0  0  0  0  0  0
    3.0842   -1.8384    0.9004 C   0  0  0  0  0  0  0  0  0  0  0  0
    4.3122   -2.5365    0.9488 C   0  0  0  0  0  0  0  0  0  0  0  0
    7.6064   -1.9282   -1.2221 H   0  0  0  0  0  0  0  0  0  0  0  0
    8.5502   -3.0929   -0.1831 H   0  0  0  0  0  0  0  0  0  0  0  0
    8.1949   -1.3533    0.3385 H   0  0  0  0  0  0  0  0  0  0  0  0
    6.2521   -0.4362   -0.7326 H   0  0  0  0  0  0  0  0  0  0  0  0
    4.1231    0.8157   -0.8399 H   0  0  0  0  0  0  0  0  0  0  0  0
    0.3754    5.4764   -0.8515 H   0  0  0  0  0  0  0  0  0  0  0  0
   -1.4602    7.1343   -1.2602 H   0  0  0  0  0  0  0  0  0  0  0  0
   -3.8442    6.4208   -1.2520 H   0  0  0  0  0  0  0  0  0  0  0  0
   -4.3278    4.0081   -0.8422 H   0  0  0  0  0  0  0  0  0  0  0  0
   -2.7858    0.7261    2.2844 H   0  0  0  0  0  0  0  0  0  0  0  0
   -4.6278   -0.6022    3.3634 H   0  0  0  0  0  0  0  0  0  0  0  0
   -4.3487   -2.4396    3.2087 H   0  0  0  0  0  0  0  0  0  0  0  0
   -5.5096   -1.5570    2.1503 H   0  0  0  0  0  0  0  0  0  0  0  0
   -4.4181   -3.7349    0.9287 H   0  0  0  0  0  0  0  0  0  0  0  0
   -3.6426   -4.8423   -1.0527 H   0  0  0  0  0  0  0  0  0  0  0  0
   -2.0009   -3.6769   -2.5387 H   0  0  0  0  0  0  0  0  0  0  0  0
   -1.2198   -1.3814   -1.9294 H   0  0  0  0  0  0  0  0  0  0  0  0
    2.1768   -2.2495    1.3664 H   0  0  0  0  0  0  0  0  0  0  0  0
    4.3715   -3.4860    1.4544 H   0  0  0  0  0  0  0  0  0  0  0  0
  1  2  1  0
  2  3  1  0
  3  4  2  0
  4  5  1  0
  5  6  2  0
  6  7  1  0
  7  8  3  0
  8  9  1  0
  9 10  2  0
 10 11  1  0
 11 12  2  0
 12 13  1  0
 13 14  2  0
 14 15  1  0
 15 16  2  0
 16 17  1  0
 17 18  2  0
 18 19  1  0
 19 20  2  0
 20 21  1  0
 21 22  1  0
 21 23  1  0
 23 24  2  0
 24 25  1  0
 25 26  2  0
 26 27  1  0
 27 28  2  0
  6 29  1  0
 29 30  2  0
 30  3  1  0
 18  9  1  0
 28 19  1  0
 16 11  1  0
 28 23  1  0
  1 31  1  0
  1 32  1  0
  1 33  1  0
  4 34  1  0
  5 35  1  0
 12 36  1  0
 13 37  1  0
 14 38  1  0
 15 39  1  0
 20 40  1  0
 22 41  1  0
 22 42  1  0
 22 43  1  0
 24 44  1  0
 25 45  1  0
 26 46  1  0
 27 47  1  0
 29 48  1  0
 30 49  1  0
M  END
