
     RDKit          3D

 44 47  0  0  0  0  0  0  0  0999 V2000
    3.9752   -2.3877   -1.1490 C   0  0  0  0  0  0  0  0  0  0  0  0
    3.6028   -1.1845   -0.5359 N   0  0  0  0  0  0  0  0  0  0  0  0
    2.3190   -0.7793   -0.5916 C   0  0  0  0  0  0  0  0  0  0  0  0
    1.4630   -1.5036   -1.2053 O   0  0  0  0  0  0  0  0  0  0  0  0
    1.8854    0.3877   -0.0134 C   0  0  0  0  0  0  0  0  0  0  0  0
    0.5313    0.7874   -0.0882 N   0  0  0  0  0  0  0  0  0  0  0  0
   -0.4181   -0.0219   -0.3351 N   0  0  0  0  0  0  0  0  0  0  0  0
   -1.7804    0.3869   -0.4092 C   0  0  0  0  0  0  0  0  0  0  0  0
   -2.1578    1.6631   -0.7496 C   0  0  0  0  0  0  0  0  0  0  0  0
   -3.4759    2.0595   -0.8215 C   0  0  0  0  0  0  0  0  0  0  0  0
   -4.4947    1.1564   -0.5443 C   0  0  0  0  0  0  0  0  0  0  0  0
   -6.1420    1.6585   -0.6360 S   0  0  0  0  0  6  0  0  0  0  0  0
   -6.8192    0.8461   -1.7185 O   0  0  0  0  0  0  0  0  0  0  0  0
   -6.2597    3.0943   -1.0334 O   0  0  0  0  0  0  0  0  0  0  0  0
   -6.9380    1.4829    0.8384 O   0  0  0  0  0  0  0  0  0  0  0  0
   -4.1381   -0.1227   -0.2025 C   0  0  0  0  0  0  0  0  0  0  0  0
   -5.1177   -1.0522    0.0808 C   0  0  0  0  0  0  0  0  0  0  0  0
   -4.7740   -2.3333    0.4236 C   0  0  0  0  0  0  0  0  0  0  0  0
   -3.4562   -2.7470    0.5002 C   0  0  0  0  0  0  0  0  0  0  0  0
   -2.4834   -1.7955    0.2111 C   0  0  0  0  0  0  0  0  0  0  0  0
   -2.8011   -0.5104   -0.1335 C   0  0  0  0  0  0  0  0  0  0  0  0
    2.7685    1.1973    0.6558 C   0  0  0  0  0  0  0  0  0  0  0  0
    2.3930    2.3880    1.2610 O   0  0  0  0  0  0  0  0  0  0  0  0
    4.0893    0.8057    0.7278 C   0  0  0  0  0  0  0  0  0  0  0  0
    5.0081    1.6140    1.4041 C   0  0  0  0  0  0  0  0  0  0  0  0
    6.3267    1.2229    1.4756 C   0  0  0  0  0  0  0  0  0  0  0  0
    6.6837    0.0386    0.8700 C   0  0  0  0  0  0  0  0  0  0  0  0
    5.7723   -0.7557    0.2035 C   0  0  0  0  0  0  0  0  0  0  0  0
    4.4617   -0.3694    0.1310 C   0  0  0  0  0  0  0  0  0  0  0  0
    4.6212   -3.0826   -0.6344 H   0  0  0  0  0  0  0  0  0  0  0  0
    3.0743   -2.9551   -1.4624 H   0  0  0  0  0  0  0  0  0  0  0  0
    4.4961   -2.1373   -2.1222 H   0  0  0  0  0  0  0  0  0  0  0  0
   -1.3972    2.3847   -0.9696 H   0  0  0  0  0  0  0  0  0  0  0  0
   -3.7709    3.0653   -1.0899 H   0  0  0  0  0  0  0  0  0  0  0  0
   -7.7507    2.0635    0.8598 H   0  0  0  0  0  0  0  0  0  0  0  0
   -6.1511   -0.7790    0.0348 H   0  0  0  0  0  0  0  0  0  0  0  0
   -5.5254   -3.0802    0.6502 H   0  0  0  0  0  0  0  0  0  0  0  0
   -3.1711   -3.7544    0.7693 H   0  0  0  0  0  0  0  0  0  0  0  0
   -1.4577   -2.1206    0.2716 H   0  0  0  0  0  0  0  0  0  0  0  0
    1.4719    2.7596    1.2679 H   0  0  0  0  0  0  0  0  0  0  0  0
    4.6890    2.5449    1.8715 H   0  0  0  0  0  0  0  0  0  0  0  0
    7.0821    1.8268    1.9965 H   0  0  0  0  0  0  0  0  0  0  0  0
    7.7096   -0.2761    0.9196 H   0  0  0  0  0  0  0  0  0  0  0  0
    6.0563   -1.6856   -0.2716 H   0  0  0  0  0  0  0  0  0  0  0  0
  1  2  1  0
  2  3  1  0
  3  4  2  0
  3  5  1  0
  5  6  1  0
  6  7  2  0
  7  8  1  0
  8  9  2  0
  9 10  1  0
 10 11  2  0
 11 12  1  0
 12 13  2  0
 12 14  2  0
 12 15  1  0
 11 16  1  0
 16 17  2  0
 17 18  1  0
 18 19  2  0
 19 20  1  0
 20 21  2  0
  5 22  2  0
 22 23  1  0
 22 24  1  0
 24 25  2  0
 25 26  1  0
 26 27  2  0
 27 28  1  0
 28 29  2  0
 29  2  1  0
 21  8  1  0
 29 24  1  0
 21 16  1  0
  1 30  1  0
  1 31  1  0
  1 32  1  0
  9 33  1  0
 10 34  1  0
 15 35  1  0
 17 36  1  0
 18 37  1  0
 19 38  1  0
 20 39  1  0
 23 40  1  0
 25 41  1  0
 26 42  1  0
 27 43  1  0
 28 44  1  0
M  END
