
     RDKit          3D

 56 62  0  0  0  0  0  0  0  0999 V2000
   -0.0462    2.3268    2.1123 C   0  0  0  0  0  0  0  0  0  0  0  0
    1.1866    1.8801    1.6736 C   0  0  0  0  0  0  0  0  0  0  0  0
    1.2177    0.8911    0.7188 C   0  0  0  0  0  0  0  0  0  0  0  0
    2.4520    0.3337    0.2139 C   0  0  0  0  0  0  0  0  0  0  0  0
    2.8056   -0.9492    0.5650 C   0  0  0  0  0  0  0  0  0  0  0  0
    1.9937   -1.7190    1.3709 C   0  0  0  0  0  0  0  0  0  0  0  0
    2.3474   -3.0039    1.7108 C   0  0  0  0  0  0  0  0  0  0  0  0
    3.5464   -3.4867    1.2119 C   0  0  0  0  0  0  0  0  0  0  0  0
    4.3696   -2.7129    0.3981 C   0  0  0  0  0  0  0  0  0  0  0  0
    3.9872   -1.4268    0.0746 C   0  0  0  0  0  0  0  0  0  0  0  0
    4.8195   -0.6672   -0.7472 C   0  0  0  0  0  0  0  0  0  0  0  0
    4.4595    0.6163   -1.0949 C   0  0  0  0  0  0  0  0  0  0  0  0
    5.2706    1.4076   -1.9097 C   0  0  0  0  0  0  0  0  0  0  0  0
    4.8596    2.6852   -2.2144 C   0  0  0  0  0  0  0  0  0  0  0  0
    3.6710    3.2029   -1.7375 C   0  0  0  0  0  0  0  0  0  0  0  0
    2.8963    2.3950   -0.9375 C   0  0  0  0  0  0  0  0  0  0  0  0
    3.2511    1.1081   -0.5964 C   0  0  0  0  0  0  0  0  0  0  0  0
    0.0093    0.3698    0.2244 C   0  0  0  0  0  0  0  0  0  0  0  0
   -1.2142    0.8018    0.6496 C   0  0  0  0  0  0  0  0  0  0  0  0
   -2.4337    0.2058    0.1264 C   0  0  0  0  0  0  0  0  0  0  0  0
   -2.9285    0.4584   -1.1409 C   0  0  0  0  0  0  0  0  0  0  0  0
   -2.2446    1.2908   -1.9796 C   0  0  0  0  0  0  0  0  0  0  0  0
   -2.7843    1.5090   -3.2451 C   0  0  0  0  0  0  0  0  0  0  0  0
   -3.9617    0.9089   -3.6359 C   0  0  0  0  0  0  0  0  0  0  0  0
   -4.6304    0.0771   -2.7778 C   0  0  0  0  0  0  0  0  0  0  0  0
   -4.1193   -0.1636   -1.5050 C   0  0  0  0  0  0  0  0  0  0  0  0
   -4.7880   -1.0037   -0.6425 C   0  0  0  0  0  0  0  0  0  0  0  0
   -4.3008   -1.2608    0.6213 C   0  0  0  0  0  0  0  0  0  0  0  0
   -4.9606   -2.1104    1.5022 C   0  0  0  0  0  0  0  0  0  0  0  0
   -4.4708   -2.3829    2.7827 C   0  0  0  0  0  0  0  0  0  0  0  0
   -3.2929   -1.7625    3.1315 C   0  0  0  0  0  0  0  0  0  0  0  0
   -2.6275   -0.9188    2.2715 C   0  0  0  0  0  0  0  0  0  0  0  0
   -3.1205   -0.6512    0.9990 C   0  0  0  0  0  0  0  0  0  0  0  0
   -1.2223    1.7953    1.6080 C   0  0  0  0  0  0  0  0  0  0  0  0
   -0.0777    3.1122    2.8654 H   0  0  0  0  0  0  0  0  0  0  0  0
    2.1261    2.2663    2.0422 H   0  0  0  0  0  0  0  0  0  0  0  0
    1.0717   -1.2980    1.7302 H   0  0  0  0  0  0  0  0  0  0  0  0
    1.7387   -3.6415    2.3404 H   0  0  0  0  0  0  0  0  0  0  0  0
    3.9092   -4.5000    1.4285 H   0  0  0  0  0  0  0  0  0  0  0  0
    5.2986   -3.0852    0.0102 H   0  0  0  0  0  0  0  0  0  0  0  0
    5.7610   -1.0510   -1.1346 H   0  0  0  0  0  0  0  0  0  0  0  0
    6.1892    0.9817   -2.2625 H   0  0  0  0  0  0  0  0  0  0  0  0
    5.4729    3.3220   -2.8419 H   0  0  0  0  0  0  0  0  0  0  0  0
    3.3618    4.2078   -1.9831 H   0  0  0  0  0  0  0  0  0  0  0  0
    1.9586    2.7956   -0.5568 H   0  0  0  0  0  0  0  0  0  0  0  0
    0.0424   -0.4194   -0.5346 H   0  0  0  0  0  0  0  0  0  0  0  0
   -1.3066    1.7642   -1.6625 H   0  0  0  0  0  0  0  0  0  0  0  0
   -2.2517    2.1648   -3.9201 H   0  0  0  0  0  0  0  0  0  0  0  0
   -4.4052    1.0655   -4.6248 H   0  0  0  0  0  0  0  0  0  0  0  0
   -5.5524   -0.3954   -3.0687 H   0  0  0  0  0  0  0  0  0  0  0  0
   -5.7093   -1.4819   -0.9244 H   0  0  0  0  0  0  0  0  0  0  0  0
   -5.8764   -2.5768    1.1954 H   0  0  0  0  0  0  0  0  0  0  0  0
   -4.9874   -3.0441    3.4608 H   0  0  0  0  0  0  0  0  0  0  0  0
   -2.8754   -1.9512    4.1288 H   0  0  0  0  0  0  0  0  0  0  0  0
   -1.7028   -0.4350    2.5540 H   0  0  0  0  0  0  0  0  0  0  0  0
   -2.1820    2.1553    1.9557 H   0  0  0  0  0  0  0  0  0  0  0  0
  1  2  2  0
  2  3  1  0
  3  4  1  0
  4  5  1  0
  5  6  2  0
  6  7  1  0
  7  8  2  0
  8  9  1  0
  9 10  2  0
 10 11  1  0
 11 12  2  0
 12 13  1  0
 13 14  2  0
 14 15  1  0
 15 16  2  0
 16 17  1  0
  3 18  2  0
 18 19  1  0
 19 20  1  0
 20 21  1  0
 21 22  2  0
 22 23  1  0
 23 24  2  0
 24 25  1  0
 25 26  2  0
 26 27  1  0
 27 28  2  0
 28 29  1  0
 29 30  2  0
 30 31  1  0
 31 32  2  0
 32 33  1  0
 19 34  2  0
 34  1  1  0
 17  4  2  0
 33 20  2  0
 10  5  1  0
 17 12  1  0
 26 21  1  0
 33 28  1  0
  1 35  1  0
  2 36  1  0
  6 37  1  0
  7 38  1  0
  8 39  1  0
  9 40  1  0
 11 41  1  0
 13 42  1  0
 14 43  1  0
 15 44  1  0
 16 45  1  0
 18 46  1  0
 22 47  1  0
 23 48  1  0
 24 49  1  0
 25 50  1  0
 27 51  1  0
 29 52  1  0
 30 53  1  0
 31 54  1  0
 32 55  1  0
 34 56  1  0
M  END
