
     RDKit          3D

 26 27  0  0  0  0  0  0  0  0999 V2000
    0.4446    0.3589    0.5327 C   0  0  0  0  0  0  0  0  0  0  0  0
   -0.4261   -0.3746   -0.1036 C   0  0  0  0  0  0  0  0  0  0  0  0
   -1.8624   -0.1969    0.0209 C   0  0  0  0  0  0  0  0  0  0  0  0
   -2.7207   -1.0313   -0.7005 C   0  0  0  0  0  0  0  0  0  0  0  0
   -4.0899   -0.9288   -0.6385 C   0  0  0  0  0  0  0  0  0  0  0  0
   -4.6581    0.0355    0.1672 C   0  0  0  0  0  0  0  0  0  0  0  0
   -3.8551    0.8827    0.8983 C   0  0  0  0  0  0  0  0  0  0  0  0
   -2.4797    0.7435    0.8053 C   0  0  0  0  0  0  0  0  0  0  0  0
    1.8875    0.2156    0.4373 C   0  0  0  0  0  0  0  0  0  0  0  0
    2.4462   -0.7408   -0.3619 C   0  0  0  0  0  0  0  0  0  0  0  0
    3.8357   -0.8694   -0.4457 C   0  0  0  0  0  0  0  0  0  0  0  0
    4.6800   -0.0362    0.2747 C   0  0  0  0  0  0  0  0  0  0  0  0
    4.0871    0.9172    1.0708 C   0  0  0  0  0  0  0  0  0  0  0  0
    2.7116    1.0499    1.1583 C   0  0  0  0  0  0  0  0  0  0  0  0
    0.0566    1.1457    1.1914 H   0  0  0  0  0  0  0  0  0  0  0  0
   -0.0664   -1.1640   -0.7651 H   0  0  0  0  0  0  0  0  0  0  0  0
   -2.2889   -1.7960   -1.3397 H   0  0  0  0  0  0  0  0  0  0  0  0
   -4.7214   -1.6114   -1.2273 H   0  0  0  0  0  0  0  0  0  0  0  0
   -5.7181    0.1383    0.2350 H   0  0  0  0  0  0  0  0  0  0  0  0
   -4.2726    1.6422    1.5334 H   0  0  0  0  0  0  0  0  0  0  0  0
   -1.8804    1.4220    1.3902 H   0  0  0  0  0  0  0  0  0  0  0  0
    1.8855   -1.4382   -0.9623 H   0  0  0  0  0  0  0  0  0  0  0  0
    4.2386   -1.6367   -1.0877 H   0  0  0  0  0  0  0  0  0  0  0  0
    5.7401   -0.1544    0.1938 H   0  0  0  0  0  0  0  0  0  0  0  0
    4.7060    1.5934    1.6543 H   0  0  0  0  0  0  0  0  0  0  0  0
    2.3204    1.8338    1.8146 H   0  0  0  0  0  0  0  0  0  0  0  0
  1  2  2  0
  2  3  1  0
  3  4  2  0
  4  5  1  0
  5  6  2  0
  6  7  1  0
  7  8  2  0
  1  9  1  0
  9 10  2  0
 10 11  1  0
 11 12  2  0
 12 13  1  0
 13 14  2  0
  8  3  1  0
 14  9  1  0
  1 15  1  0
  2 16  1  0
  4 17  1  0
  5 18  1  0
  6 19  1  0
  7 20  1  0
  8 21  1  0
 10 22  1  0
 11 23  1  0
 12 24  1  0
 13 25  1  0
 14 26  1  0
M  END
