
     RDKit          3D

 30 32  0  0  0  0  0  0  0  0999 V2000
   -0.6673    3.0487   -0.4221 C   0  0  0  0  0  0  0  0  0  0  0  0
   -0.3689    2.1644    0.7870 C   0  0  0  0  0  0  0  0  0  0  0  0
   -0.0948    0.6849    0.3811 B   0  0  0  0  0  0  0  0  0  0  0  0
   -1.2905   -0.2589    0.0570 C   0  0  0  0  0  0  0  0  0  0  0  0
   -2.6131    0.1238    0.1020 C   0  0  0  0  0  0  0  0  0  0  0  0
   -3.6411   -0.7460   -0.1932 C   0  0  0  0  0  0  0  0  0  0  0  0
   -3.3363   -2.0464   -0.5463 C   0  0  0  0  0  0  0  0  0  0  0  0
   -2.0145   -2.4348   -0.5930 C   0  0  0  0  0  0  0  0  0  0  0  0
   -0.9705   -1.5560   -0.2945 C   0  0  0  0  0  0  0  0  0  0  0  0
    0.3799   -1.9981   -0.3550 N   0  0  0  0  0  0  0  0  0  0  0  0
    1.5073   -1.1709   -0.0671 C   0  0  0  0  0  0  0  0  0  0  0  0
    2.8030   -1.6585   -0.1431 C   0  0  0  0  0  0  0  0  0  0  0  0
    3.9052   -0.8797    0.1299 C   0  0  0  0  0  0  0  0  0  0  0  0
    3.7680    0.4424    0.4973 C   0  0  0  0  0  0  0  0  0  0  0  0
    2.4764    0.9303    0.5735 C   0  0  0  0  0  0  0  0  0  0  0  0
    1.3756    0.1514    0.3005 C   0  0  0  0  0  0  0  0  0  0  0  0
   -1.5662    2.6946   -0.9651 H   0  0  0  0  0  0  0  0  0  0  0  0
   -0.9033    4.0597   -0.0346 H   0  0  0  0  0  0  0  0  0  0  0  0
    0.1652    3.0411   -1.1411 H   0  0  0  0  0  0  0  0  0  0  0  0
    0.4482    2.6527    1.3385 H   0  0  0  0  0  0  0  0  0  0  0  0
   -1.2791    2.2189    1.4457 H   0  0  0  0  0  0  0  0  0  0  0  0
   -2.8496    1.1376    0.3774 H   0  0  0  0  0  0  0  0  0  0  0  0
   -4.6783   -0.4696   -0.1646 H   0  0  0  0  0  0  0  0  0  0  0  0
   -4.1394   -2.7618   -0.7871 H   0  0  0  0  0  0  0  0  0  0  0  0
   -1.7913   -3.4488   -0.8691 H   0  0  0  0  0  0  0  0  0  0  0  0
    0.5657   -2.9961   -0.6284 H   0  0  0  0  0  0  0  0  0  0  0  0
    2.9380   -2.6906   -0.4285 H   0  0  0  0  0  0  0  0  0  0  0  0
    4.9232   -1.2691    0.0685 H   0  0  0  0  0  0  0  0  0  0  0  0
    4.6194    1.0717    0.7159 H   0  0  0  0  0  0  0  0  0  0  0  0
    2.3291    1.9632    0.8585 H   0  0  0  0  0  0  0  0  0  0  0  0
  1  2  1  0
  2  3  1  0
  3  4  1  0
  4  5  2  0
  5  6  1  0
  6  7  2  0
  7  8  1  0
  8  9  2  0
  9 10  1  0
 10 11  1  0
 11 12  2  0
 12 13  1  0
 13 14  2  0
 14 15  1  0
 15 16  2  0
 16  3  1  0
  9  4  1  0
 16 11  1  0
  1 17  1  0
  1 18  1  0
  1 19  1  0
  2 20  1  0
  2 21  1  0
  5 22  1  0
  6 23  1  0
  7 24  1  0
  8 25  1  0
 10 26  1  0
 12 27  1  0
 13 28  1  0
 14 29  1  0
 15 30  1  0
M  END
