
     RDKit          3D

 39 40  0  0  0  0  0  0  0  0999 V2000
   -3.3801    1.8139    0.7846 C   0  0  0  0  0  0  0  0  0  0  0  0
   -3.0917    0.3428    0.8596 C   0  0  0  0  0  0  0  0  0  0  0  0
   -2.1974   -0.0946   -0.1909 N   0  0  0  0  0  0  0  0  0  0  0  0
   -2.6278   -0.0934   -1.5653 C   0  0  0  0  0  0  0  0  0  0  0  0
   -3.7088   -1.1351   -1.8090 C   0  0  0  0  0  0  0  0  0  0  0  0
   -0.8815   -0.5180    0.1238 C   0  0  0  0  0  0  0  0  0  0  0  0
   -0.7604   -1.8262    0.5946 C   0  0  0  0  0  0  0  0  0  0  0  0
    0.4865   -2.3034    0.9282 C   0  0  0  0  0  0  0  0  0  0  0  0
    1.6168   -1.4777    0.7922 C   0  0  0  0  0  0  0  0  0  0  0  0
    1.5068   -0.1895    0.3266 C   0  0  0  0  0  0  0  0  0  0  0  0
    0.2271    0.2861   -0.0085 C   0  0  0  0  0  0  0  0  0  0  0  0
    2.6571    0.6956    0.1081 C   0  0  0  0  0  0  0  0  0  0  0  0
    2.9253    0.8719   -1.3967 C   0  0  0  0  0  0  0  0  0  0  0  0
    2.3917    2.0772    0.6728 C   0  0  0  0  0  0  0  0  0  0  0  0
    3.9000    0.1807    0.7012 C   0  0  0  0  0  0  0  0  0  0  0  0
    4.9359    0.9546    0.8050 O   0  0  0  0  0  0  0  0  0  0  0  0
    3.9707   -1.1858    1.1699 C   0  0  0  0  0  0  0  0  0  0  0  0
    2.9215   -1.9720    1.2224 C   0  0  0  0  0  0  0  0  0  0  0  0
   -2.6708    2.3259    1.4696 H   0  0  0  0  0  0  0  0  0  0  0  0
   -4.4533    2.0262    1.0796 H   0  0  0  0  0  0  0  0  0  0  0  0
   -3.2873    2.1446   -0.2718 H   0  0  0  0  0  0  0  0  0  0  0  0
   -4.0682   -0.2054    0.8249 H   0  0  0  0  0  0  0  0  0  0  0  0
   -2.6620    0.0869    1.8679 H   0  0  0  0  0  0  0  0  0  0  0  0
   -1.7696   -0.3422   -2.2030 H   0  0  0  0  0  0  0  0  0  0  0  0
   -3.0659    0.8858   -1.8694 H   0  0  0  0  0  0  0  0  0  0  0  0
   -3.2414   -2.1083   -2.0127 H   0  0  0  0  0  0  0  0  0  0  0  0
   -4.2827   -0.8441   -2.7182 H   0  0  0  0  0  0  0  0  0  0  0  0
   -4.4017   -1.1346   -0.9613 H   0  0  0  0  0  0  0  0  0  0  0  0
   -1.6482   -2.4303    0.6875 H   0  0  0  0  0  0  0  0  0  0  0  0
    0.6179   -3.3184    1.3033 H   0  0  0  0  0  0  0  0  0  0  0  0
    0.0981    1.2998   -0.3772 H   0  0  0  0  0  0  0  0  0  0  0  0
    2.9011   -0.1539   -1.8250 H   0  0  0  0  0  0  0  0  0  0  0  0
    2.1481    1.4916   -1.8618 H   0  0  0  0  0  0  0  0  0  0  0  0
    3.9507    1.2333   -1.5146 H   0  0  0  0  0  0  0  0  0  0  0  0
    1.6599    1.9834    1.4756 H   0  0  0  0  0  0  0  0  0  0  0  0
    1.9675    2.7019   -0.1438 H   0  0  0  0  0  0  0  0  0  0  0  0
    3.3512    2.4826    1.0546 H   0  0  0  0  0  0  0  0  0  0  0  0
    4.9713   -1.5434    1.4880 H   0  0  0  0  0  0  0  0  0  0  0  0
    2.9938   -3.0085    1.5886 H   0  0  0  0  0  0  0  0  0  0  0  0
  1  2  1  0
  2  3  1  0
  3  4  1  0
  4  5  1  0
  3  6  1  0
  6  7  2  0
  7  8  1  0
  8  9  2  0
  9 10  1  0
 10 11  2  0
 10 12  1  0
 12 13  1  0
 12 14  1  0
 12 15  1  0
 15 16  2  0
 15 17  1  0
 17 18  2  0
 11  6  1  0
 18  9  1  0
  1 19  1  0
  1 20  1  0
  1 21  1  0
  2 22  1  0
  2 23  1  0
  4 24  1  0
  4 25  1  0
  5 26  1  0
  5 27  1  0
  5 28  1  0
  7 29  1  0
  8 30  1  0
 11 31  1  0
 13 32  1  0
 13 33  1  0
 13 34  1  0
 14 35  1  0
 14 36  1  0
 14 37  1  0
 17 38  1  0
 18 39  1  0
M  END
