
     RDKit          3D

 55 59  0  0  0  0  0  0  0  0999 V2000
    0.5413   -3.6909   -0.5579 C   0  0  0  0  0  0  0  0  0  0  0  0
    0.4011   -2.5225   -1.4846 C   0  0  0  0  0  0  0  0  0  0  0  0
   -0.3588   -1.3638   -1.0866 C   0  0  0  0  0  0  0  0  0  0  0  0
   -0.1060   -0.4254    0.0009 C   0  0  0  0  0  0  0  0  0  0  0  0
   -0.0476   -0.7540    1.4151 C   0  0  0  0  0  0  0  0  0  0  0  0
    0.8773   -1.6407    2.0781 C   0  0  0  0  0  0  0  0  0  0  0  0
    0.5034   -1.5737    3.5993 C   0  0  0  0  0  0  0  0  0  0  0  0
   -1.2789    0.5217   -0.0940 C   0  0  0  0  0  0  0  0  0  0  0  0
   -2.6143    0.2035    0.1839 C   0  0  0  0  0  0  0  0  0  0  0  0
   -3.6073    1.1511    0.0633 C   0  0  0  0  0  0  0  0  0  0  0  0
   -5.0017    0.8348    0.3490 C   0  0  0  0  0  0  0  0  0  0  0  0
   -5.4652   -0.4157    0.7606 C   0  0  0  0  0  0  0  0  0  0  0  0
   -6.8307   -0.3232    0.9293 C   0  0  0  0  0  0  0  0  0  0  0  0
   -7.1436    0.9881    0.6113 C   0  0  0  0  0  0  0  0  0  0  0  0
   -6.0526    1.6041    0.2858 O   0  0  0  0  0  0  0  0  0  0  0  0
   -3.2449    2.4181   -0.3385 C   0  0  0  0  0  0  0  0  0  0  0  0
   -1.9171    2.7123   -0.6087 C   0  0  0  0  0  0  0  0  0  0  0  0
   -0.9250    1.7434   -0.4820 C   0  0  0  0  0  0  0  0  0  0  0  0
    0.5072    1.7184   -0.6788 C   0  0  0  0  0  0  0  0  0  0  0  0
    1.3106    2.7841   -1.0876 C   0  0  0  0  0  0  0  0  0  0  0  0
    2.6556    2.6105   -1.2309 C   0  0  0  0  0  0  0  0  0  0  0  0
    3.1876    1.3680   -0.9632 C   0  0  0  0  0  0  0  0  0  0  0  0
    4.6394    1.1275   -1.1032 C   0  0  0  0  0  0  0  0  0  0  0  0
    5.5862    2.0314   -1.4877 C   0  0  0  0  0  0  0  0  0  0  0  0
    6.8076    1.3968   -1.4861 C   0  0  0  0  0  0  0  0  0  0  0  0
    6.5355    0.0900   -1.0862 C   0  0  0  0  0  0  0  0  0  0  0  0
    5.2460   -0.0108   -0.8750 O   0  0  0  0  0  0  0  0  0  0  0  0
    2.3729    0.3300   -0.5604 C   0  0  0  0  0  0  0  0  0  0  0  0
    1.0103    0.4906   -0.4110 C   0  0  0  0  0  0  0  0  0  0  0  0
    1.5553   -3.7680   -0.1067 H   0  0  0  0  0  0  0  0  0  0  0  0
   -0.2896   -3.7236    0.1682 H   0  0  0  0  0  0  0  0  0  0  0  0
    0.4461   -4.6841   -1.1022 H   0  0  0  0  0  0  0  0  0  0  0  0
   -0.1609   -2.9619   -2.3836 H   0  0  0  0  0  0  0  0  0  0  0  0
    1.3883   -2.2932   -1.9928 H   0  0  0  0  0  0  0  0  0  0  0  0
   -0.4368   -0.7001   -2.0312 H   0  0  0  0  0  0  0  0  0  0  0  0
   -1.4654   -1.7242   -1.0632 H   0  0  0  0  0  0  0  0  0  0  0  0
   -1.1183   -1.0223    1.7224 H   0  0  0  0  0  0  0  0  0  0  0  0
    0.0475    0.2413    1.9889 H   0  0  0  0  0  0  0  0  0  0  0  0
    1.9261   -1.2078    2.0945 H   0  0  0  0  0  0  0  0  0  0  0  0
    0.9423   -2.6912    1.9089 H   0  0  0  0  0  0  0  0  0  0  0  0
    0.1022   -0.5913    3.8435 H   0  0  0  0  0  0  0  0  0  0  0  0
    1.3807   -1.7809    4.2102 H   0  0  0  0  0  0  0  0  0  0  0  0
   -0.2715   -2.3348    3.8144 H   0  0  0  0  0  0  0  0  0  0  0  0
   -2.8934   -0.7965    0.5000 H   0  0  0  0  0  0  0  0  0  0  0  0
   -4.9079   -1.3157    0.9302 H   0  0  0  0  0  0  0  0  0  0  0  0
   -7.5288   -1.1076    1.2454 H   0  0  0  0  0  0  0  0  0  0  0  0
   -8.1663    1.3606    0.6537 H   0  0  0  0  0  0  0  0  0  0  0  0
   -3.9698    3.2202   -0.4570 H   0  0  0  0  0  0  0  0  0  0  0  0
   -1.6217    3.7076   -0.9258 H   0  0  0  0  0  0  0  0  0  0  0  0
    0.8763    3.7569   -1.2947 H   0  0  0  0  0  0  0  0  0  0  0  0
    3.3241    3.4226   -1.5505 H   0  0  0  0  0  0  0  0  0  0  0  0
    5.3795    3.0742   -1.7465 H   0  0  0  0  0  0  0  0  0  0  0  0
    7.7770    1.8177   -1.7403 H   0  0  0  0  0  0  0  0  0  0  0  0
    7.3073   -0.6654   -0.9873 H   0  0  0  0  0  0  0  0  0  0  0  0
    2.7891   -0.6361   -0.3526 H   0  0  0  0  0  0  0  0  0  0  0  0
  1  2  1  0
  2  3  1  0
  3  4  1  0
  4  5  1  0
  5  6  1  0
  6  7  1  0
  4  8  1  0
  8  9  2  0
  9 10  1  0
 10 11  1  0
 11 12  2  0
 12 13  1  0
 13 14  2  0
 14 15  1  0
 10 16  2  0
 16 17  1  0
 17 18  2  0
 18 19  1  0
 19 20  2  0
 20 21  1  0
 21 22  2  0
 22 23  1  0
 23 24  2  0
 24 25  1  0
 25 26  2  0
 26 27  1  0
 22 28  1  0
 28 29  2  0
 29  4  1  0
 18  8  1  0
 29 19  1  0
 15 11  1  0
 27 23  1  0
  1 30  1  0
  1 31  1  0
  1 32  1  0
  2 33  1  0
  2 34  1  0
  3 35  1  0
  3 36  1  0
  5 37  1  0
  5 38  1  0
  6 39  1  0
  6 40  1  0
  7 41  1  0
  7 42  1  0
  7 43  1  0
  9 44  1  0
 12 45  1  0
 13 46  1  0
 14 47  1  0
 16 48  1  0
 17 49  1  0
 20 50  1  0
 21 51  1  0
 24 52  1  0
 25 53  1  0
 26 54  1  0
 28 55  1  0
M  END
