
     RDKit          3D

 38 42  0  0  0  0  0  0  0  0999 V2000
    5.7921    0.1577   -2.0423 N   0  0  0  0  0  0  0  0  0  0  0  0
    4.6565    0.2644   -1.7348 C   0  0  0  0  0  0  0  0  0  0  0  0
    3.2972    0.4153   -1.3682 C   0  0  0  0  0  0  0  0  0  0  0  0
    2.4969    1.3712   -1.8992 C   0  0  0  0  0  0  0  0  0  0  0  0
    1.2086    1.4743   -1.5588 C   0  0  0  0  0  0  0  0  0  0  0  0
    0.4625    2.6307   -1.8847 C   0  0  0  0  0  0  0  0  0  0  0  0
   -0.7757    2.8667   -1.3697 C   0  0  0  0  0  0  0  0  0  0  0  0
   -1.4068    1.9566   -0.4949 C   0  0  0  0  0  0  0  0  0  0  0  0
   -2.6836    2.0952   -0.1513 C   0  0  0  0  0  0  0  0  0  0  0  0
   -3.3893    1.1220    0.4855 C   0  0  0  0  0  0  0  0  0  0  0  0
   -4.7518    1.2629    0.8967 C   0  0  0  0  0  0  0  0  0  0  0  0
   -5.8661    1.3966    1.2247 N   0  0  0  0  0  0  0  0  0  0  0  0
   -2.6860   -0.0892    0.7502 C   0  0  0  0  0  0  0  0  0  0  0  0
   -3.5430   -1.1562    1.0265 C   0  0  0  0  0  0  0  0  0  0  0  0
   -3.0702   -2.4447    0.9316 C   0  0  0  0  0  0  0  0  0  0  0  0
   -1.7650   -2.6279    0.5602 C   0  0  0  0  0  0  0  0  0  0  0  0
   -0.9242   -1.5825    0.3004 C   0  0  0  0  0  0  0  0  0  0  0  0
   -1.3622   -0.2430    0.4139 C   0  0  0  0  0  0  0  0  0  0  0  0
   -0.6525    0.7948   -0.1812 C   0  0  0  0  0  0  0  0  0  0  0  0
    0.5858    0.5921   -0.6410 C   0  0  0  0  0  0  0  0  0  0  0  0
    1.4061   -0.3681   -0.0587 C   0  0  0  0  0  0  0  0  0  0  0  0
    1.0808   -0.9651    1.1794 C   0  0  0  0  0  0  0  0  0  0  0  0
    2.0106   -1.6296    1.9222 C   0  0  0  0  0  0  0  0  0  0  0  0
    3.3184   -1.7475    1.5179 C   0  0  0  0  0  0  0  0  0  0  0  0
    3.6791   -1.1556    0.3339 C   0  0  0  0  0  0  0  0  0  0  0  0
    2.7368   -0.4745   -0.4120 C   0  0  0  0  0  0  0  0  0  0  0  0
    2.8804    2.1011   -2.6341 H   0  0  0  0  0  0  0  0  0  0  0  0
    0.9386    3.3188   -2.5716 H   0  0  0  0  0  0  0  0  0  0  0  0
   -1.3433    3.7537   -1.5949 H   0  0  0  0  0  0  0  0  0  0  0  0
   -3.1793    3.0516   -0.4029 H   0  0  0  0  0  0  0  0  0  0  0  0
   -4.5703   -0.9501    1.3187 H   0  0  0  0  0  0  0  0  0  0  0  0
   -3.7224   -3.2713    1.1488 H   0  0  0  0  0  0  0  0  0  0  0  0
   -1.4353   -3.6677    0.4854 H   0  0  0  0  0  0  0  0  0  0  0  0
   -0.0081   -1.9055   -0.1848 H   0  0  0  0  0  0  0  0  0  0  0  0
    0.1536   -0.7613    1.7367 H   0  0  0  0  0  0  0  0  0  0  0  0
    1.6912   -2.0795    2.8644 H   0  0  0  0  0  0  0  0  0  0  0  0
    4.0444   -2.2736    2.0841 H   0  0  0  0  0  0  0  0  0  0  0  0
    4.6955   -1.2328    0.0039 H   0  0  0  0  0  0  0  0  0  0  0  0
  1  2  3  0
  2  3  1  0
  3  4  2  0
  4  5  1  0
  5  6  2  0
  6  7  1  0
  7  8  2  0
  8  9  1  0
  9 10  2  0
 10 11  1  0
 11 12  3  0
 10 13  1  0
 13 14  2  0
 14 15  1  0
 15 16  2  0
 16 17  1  0
 17 18  2  0
 18 19  1  0
 19 20  2  0
 20 21  1  0
 21 22  2  0
 22 23  1  0
 23 24  2  0
 24 25  1  0
 25 26  2  0
 26  3  1  0
 20  5  1  0
 26 21  1  0
 19  8  1  0
 18 13  1  0
  4 27  1  0
  6 28  1  0
  7 29  1  0
  9 30  1  0
 14 31  1  0
 15 32  1  0
 16 33  1  0
 17 34  1  0
 22 35  1  0
 23 36  1  0
 24 37  1  0
 25 38  1  0
M  END
