
     RDKit          3D

 16 16  0  0  0  0  0  0  0  0999 V2000
    2.7526    0.1925   -0.0738 C   0  0  0  0  0  0  0  0  0  0  0  0
    1.5906    0.9465   -0.0890 O   0  0  0  0  0  0  0  0  0  0  0  0
    0.3016    0.4558   -0.0262 C   0  0  0  0  0  0  0  0  0  0  0  0
   -0.7718    1.3220   -0.0503 C   0  0  0  0  0  0  0  0  0  0  0  0
   -2.0871    0.8421    0.0125 C   0  0  0  0  0  0  0  0  0  0  0  0
   -2.3409   -0.5018    0.0996 C   0  0  0  0  0  0  0  0  0  0  0  0
   -1.2866   -1.3865    0.1253 C   0  0  0  0  0  0  0  0  0  0  0  0
    0.0214   -0.8916    0.0618 C   0  0  0  0  0  0  0  0  0  0  0  0
    2.5973   -0.7553   -0.6237 H   0  0  0  0  0  0  0  0  0  0  0  0
    3.1511   -0.0245    0.9466 H   0  0  0  0  0  0  0  0  0  0  0  0
    3.5239    0.7538   -0.6776 H   0  0  0  0  0  0  0  0  0  0  0  0
   -0.5815    2.4005   -0.1199 H   0  0  0  0  0  0  0  0  0  0  0  0
   -2.9211    1.5284   -0.0071 H   0  0  0  0  0  0  0  0  0  0  0  0
   -3.3588   -0.8541    0.1471 H   0  0  0  0  0  0  0  0  0  0  0  0
   -1.4576   -2.4527    0.1937 H   0  0  0  0  0  0  0  0  0  0  0  0
    0.8670   -1.5752    0.0809 H   0  0  0  0  0  0  0  0  0  0  0  0
  1  2  1  0
  2  3  1  0
  3  4  2  0
  4  5  1  0
  5  6  2  0
  6  7  1  0
  7  8  2  0
  8  3  1  0
  1  9  1  0
  1 10  1  0
  1 11  1  0
  4 12  1  0
  5 13  1  0
  6 14  1  0
  7 15  1  0
  8 16  1  0
M  END
