
     RDKit          3D

 31 33  0  0  0  0  0  0  0  0999 V2000
   -2.1046    3.6832    0.6619 N   0  0  0  0  0  0  0  0  0  0  0  0
   -1.4001    2.7596    0.5177 C   0  0  0  0  0  0  0  0  0  0  0  0
   -0.5310    1.6552    0.3403 C   0  0  0  0  0  0  0  0  0  0  0  0
    0.8033    1.6972    0.5113 N   0  0  0  0  0  0  0  0  0  0  0  0
    1.3525    0.5211    0.2768 N   0  0  0  0  0  0  0  0  0  0  0  0
    2.7469    0.2438    0.3733 C   0  0  0  0  0  0  0  0  0  0  0  0
    3.2304   -1.0291    0.6133 C   0  0  0  0  0  0  0  0  0  0  0  0
    2.1169   -2.3494    0.8067 Cl  0  0  0  0  0  0  0  0  0  0  0  0
    4.5841   -1.2941    0.7062 C   0  0  0  0  0  0  0  0  0  0  0  0
    5.4889   -0.2682    0.5572 C   0  0  0  0  0  0  0  0  0  0  0  0
    5.0419    1.0109    0.3175 C   0  0  0  0  0  0  0  0  0  0  0  0
    3.6891    1.2435    0.2302 C   0  0  0  0  0  0  0  0  0  0  0  0
    3.1448    2.8736   -0.0744 Cl  0  0  0  0  0  0  0  0  0  0  0  0
    0.3589   -0.2765   -0.0462 N   0  0  0  0  0  0  0  0  0  0  0  0
   -0.8192    0.3488   -0.0280 C   0  0  0  0  0  0  0  0  0  0  0  0
   -2.1186   -0.1329   -0.3067 N   0  0  0  0  0  0  0  0  0  0  0  0
   -2.4064   -1.4993   -0.6952 C   0  0  0  0  0  0  0  0  0  0  0  0
   -3.6829   -1.7519    0.1126 C   0  0  0  0  0  0  0  0  0  0  0  0
   -4.4592   -0.4907   -0.2119 C   0  0  0  0  0  0  0  0  0  0  0  0
   -3.3730    0.5862   -0.2681 C   0  0  0  0  0  0  0  0  0  0  0  0
    4.9878   -2.2793    0.8929 H   0  0  0  0  0  0  0  0  0  0  0  0
    6.5630   -0.4443    0.6249 H   0  0  0  0  0  0  0  0  0  0  0  0
    5.7774    1.8065    0.2031 H   0  0  0  0  0  0  0  0  0  0  0  0
   -2.7246   -1.5202   -1.7587 H   0  0  0  0  0  0  0  0  0  0  0  0
   -1.6096   -2.2000   -0.4476 H   0  0  0  0  0  0  0  0  0  0  0  0
   -4.2019   -2.6630   -0.2292 H   0  0  0  0  0  0  0  0  0  0  0  0
   -3.3749   -1.7816    1.1665 H   0  0  0  0  0  0  0  0  0  0  0  0
   -4.9092   -0.6128   -1.2194 H   0  0  0  0  0  0  0  0  0  0  0  0
   -5.2106   -0.2564    0.5650 H   0  0  0  0  0  0  0  0  0  0  0  0
   -3.4458    1.2285    0.6494 H   0  0  0  0  0  0  0  0  0  0  0  0
   -3.5143    1.1914   -1.1868 H   0  0  0  0  0  0  0  0  0  0  0  0
  1  2  3  0
  2  3  1  0
  3  4  2  0
  4  5  1  0
  5  6  1  0
  6  7  2  0
  7  8  1  0
  7  9  1  0
  9 10  2  0
 10 11  1  0
 11 12  2  0
 12 13  1  0
  5 14  1  0
 14 15  2  0
 15 16  1  0
 16 17  1  0
 17 18  1  0
 18 19  1  0
 19 20  1  0
 15  3  1  0
 20 16  1  0
 12  6  1  0
  9 21  1  0
 10 22  1  0
 11 23  1  0
 17 24  1  0
 17 25  1  0
 18 26  1  0
 18 27  1  0
 19 28  1  0
 19 29  1  0
 20 30  1  0
 20 31  1  0
M  END
