
     RDKit          3D

 58 63  0  0  0  0  0  0  0  0999 V2000
   -4.4169   -6.7147   -0.1877 C   0  0  0  0  0  0  0  0  0  0  0  0
   -3.5968   -5.4779   -0.2417 C   0  0  0  0  0  0  0  0  0  0  0  0
   -4.0821   -4.3122    0.2525 C   0  0  0  0  0  0  0  0  0  0  0  0
   -3.3060   -3.1861    0.3344 C   0  0  0  0  0  0  0  0  0  0  0  0
   -1.9904   -3.3242   -0.1509 C   0  0  0  0  0  0  0  0  0  0  0  0
   -1.1992   -2.0751   -0.1417 C   0  0  0  0  0  0  0  0  0  0  0  0
   -1.6653   -0.9592   -0.4803 C   0  0  0  0  0  0  0  0  0  0  0  0
   -3.0756   -0.6150   -0.9636 C   0  0  0  0  0  0  0  0  0  0  0  0
   -3.1563    0.6436   -0.9282 C   0  0  0  0  0  0  0  0  0  0  0  0
   -1.8451    1.2124   -0.4702 C   0  0  0  0  0  0  0  0  0  0  0  0
   -1.8271    2.6101   -0.2983 C   0  0  0  0  0  0  0  0  0  0  0  0
   -1.7933    3.9600   -0.1497 C   0  0  0  0  0  0  0  0  0  0  0  0
   -1.7494    5.2696   -0.0250 C   0  0  0  0  0  0  0  0  0  0  0  0
   -2.2152    5.7553    1.2311 C   0  0  0  0  0  0  0  0  0  0  0  0
   -3.0204    6.8484    1.3795 C   0  0  0  0  0  0  0  0  0  0  0  0
   -3.4000    7.5541    0.2681 C   0  0  0  0  0  0  0  0  0  0  0  0
   -2.9859    7.1594   -0.9723 C   0  0  0  0  0  0  0  0  0  0  0  0
   -2.1711    6.0637   -1.1855 C   0  0  0  0  0  0  0  0  0  0  0  0
   -1.0433    0.2954   -0.2496 N   0  0  0  0  0  4  0  0  0  0  0  0
    0.4925    0.3062    0.0156 B   0  0  0  0  0  4  0  0  0  0  0  0
    0.8230    1.2971    0.9581 F   0  0  0  0  0  0  0  0  0  0  0  0
    1.0321    0.7030   -1.3232 F   0  0  0  0  0  0  0  0  0  0  0  0
    0.9910   -1.0693    0.3694 N   0  0  0  0  0  0  0  0  0  0  0  0
    2.1877   -1.5526    0.8198 C   0  0  0  0  0  0  0  0  0  0  0  0
    3.4732   -0.7888    0.7008 C   0  0  0  0  0  0  0  0  0  0  0  0
    4.4640   -0.2209    0.6173 C   0  0  0  0  0  0  0  0  0  0  0  0
    5.7779    0.5392    0.4851 C   0  0  0  0  0  0  0  0  0  0  0  0
    5.8858    1.8167    0.3612 C   0  0  0  0  0  0  0  0  0  0  0  0
    7.1610    2.3480    0.0182 C   0  0  0  0  0  0  0  0  0  0  0  0
    8.1870    1.4693   -0.1194 C   0  0  0  0  0  0  0  0  0  0  0  0
    8.0711    0.1125    0.0412 C   0  0  0  0  0  0  0  0  0  0  0  0
    6.8473   -0.4337    0.3402 C   0  0  0  0  0  0  0  0  0  0  0  0
    2.2000   -2.8726    1.0757 C   0  0  0  0  0  0  0  0  0  0  0  0
    0.8828   -3.2811    0.7283 C   0  0  0  0  0  0  0  0  0  0  0  0
    0.2135   -2.2029    0.3324 C   0  0  0  0  0  0  0  0  0  0  0  0
   -1.4992   -4.4343   -0.6404 C   0  0  0  0  0  0  0  0  0  0  0  0
   -2.2567   -5.6273   -0.7137 C   0  0  0  0  0  0  0  0  0  0  0  0
   -5.4570   -6.5955   -0.4622 H   0  0  0  0  0  0  0  0  0  0  0  0
   -4.3342   -7.1675    0.8410 H   0  0  0  0  0  0  0  0  0  0  0  0
   -3.9897   -7.5307   -0.8398 H   0  0  0  0  0  0  0  0  0  0  0  0
   -5.1240   -4.2396    0.5867 H   0  0  0  0  0  0  0  0  0  0  0  0
   -3.6237   -2.2433    0.7630 H   0  0  0  0  0  0  0  0  0  0  0  0
   -3.7888   -1.3779   -1.2811 H   0  0  0  0  0  0  0  0  0  0  0  0
   -4.0189    1.2582   -1.2026 H   0  0  0  0  0  0  0  0  0  0  0  0
   -1.8415    5.1632    2.0899 H   0  0  0  0  0  0  0  0  0  0  0  0
   -3.3672    7.1734    2.3639 H   0  0  0  0  0  0  0  0  0  0  0  0
   -4.1527    8.3697    0.3798 H   0  0  0  0  0  0  0  0  0  0  0  0
   -3.3289    7.7062   -1.8691 H   0  0  0  0  0  0  0  0  0  0  0  0
   -1.7753    5.7543   -2.1271 H   0  0  0  0  0  0  0  0  0  0  0  0
    5.0969    2.5530    0.5367 H   0  0  0  0  0  0  0  0  0  0  0  0
    7.2599    3.4086   -0.1450 H   0  0  0  0  0  0  0  0  0  0  0  0
    9.1462    1.8785   -0.4263 H   0  0  0  0  0  0  0  0  0  0  0  0
    8.9552   -0.5062   -0.0852 H   0  0  0  0  0  0  0  0  0  0  0  0
    6.6506   -1.4461    0.5320 H   0  0  0  0  0  0  0  0  0  0  0  0
    2.9662   -3.5475    1.3870 H   0  0  0  0  0  0  0  0  0  0  0  0
    0.6631   -4.3518    0.9040 H   0  0  0  0  0  0  0  0  0  0  0  0
   -0.4623   -4.5324   -1.0707 H   0  0  0  0  0  0  0  0  0  0  0  0
   -1.8687   -6.5427   -1.0912 H   0  0  0  0  0  0  0  0  0  0  0  0
  1  2  1  0
  2  3  2  0
  3  4  1  0
  4  5  2  0
  5  6  1  0
  6  7  2  0
  7  8  1  0
  8  9  2  0
  9 10  1  0
 10 11  1  0
 11 12  3  0
 12 13  1  0
 13 14  2  0
 14 15  1  0
 15 16  2  0
 16 17  1  0
 17 18  2  0
 10 19  2  0
 19 20  1  0
 20 21  1  0
 20 22  1  0
 20 23  1  0
 23 24  1  0
 24 25  1  0
 25 26  3  0
 26 27  1  0
 27 28  2  0
 28 29  1  0
 29 30  2  0
 30 31  1  0
 31 32  2  0
 24 33  2  0
 33 34  1  0
 34 35  2  0
  5 36  1  0
 36 37  2  0
 37  2  1  0
 35  6  1  0
 19  7  1  0
 35 23  1  0
 18 13  1  0
 32 27  1  0
  1 38  1  0
  1 39  1  0
  1 40  1  0
  3 41  1  0
  4 42  1  0
  8 43  1  0
  9 44  1  0
 14 45  1  0
 15 46  1  0
 16 47  1  0
 17 48  1  0
 18 49  1  0
 28 50  1  0
 29 51  1  0
 30 52  1  0
 31 53  1  0
 32 54  1  0
 33 55  1  0
 34 56  1  0
 36 57  1  0
 37 58  1  0
M  CHG  2  19   1  20  -1
M  END
