
     RDKit          3D

 83 90  0  0  0  0  0  0  0  0999 V2000
   -9.7790   -1.3606   -1.0766 C   0  0  0  0  0  0  0  0  0  0  0  0
   -9.1053   -0.7635    0.0162 O   0  0  0  0  0  0  0  0  0  0  0  0
   -7.7137   -0.7733    0.0151 C   0  0  0  0  0  0  0  0  0  0  0  0
   -6.9803   -0.2114    1.0370 C   0  0  0  0  0  0  0  0  0  0  0  0
   -5.5957   -0.2100    1.0551 C   0  0  0  0  0  0  0  0  0  0  0  0
   -4.8946   -0.7801    0.0335 C   0  0  0  0  0  0  0  0  0  0  0  0
   -3.4146   -0.7808   -0.0029 C   0  0  0  0  0  0  0  0  0  0  0  0
   -2.6339    0.2592    0.2936 C   0  0  0  0  0  0  0  0  0  0  0  0
   -3.0927    1.5988    0.7100 C   0  0  0  0  0  0  0  0  0  0  0  0
   -1.2508   -0.2160    0.1129 C   0  0  0  0  0  0  0  0  0  0  0  0
   -0.0814    0.3736    0.2782 C   0  0  0  0  0  0  0  0  0  0  0  0
   -0.0418    1.7560    0.7263 C   0  0  0  0  0  0  0  0  0  0  0  0
    0.2998    2.8962    0.0457 C   0  0  0  0  0  0  0  0  0  0  0  0
    0.6304    3.0762   -1.3475 C   0  0  0  0  0  0  0  0  0  0  0  0
    0.6079    2.0941   -2.2825 C   0  0  0  0  0  0  0  0  0  0  0  0
    0.9043    2.3647   -3.6367 C   0  0  0  0  0  0  0  0  0  0  0  0
    1.2192    3.6471   -4.0079 C   0  0  0  0  0  0  0  0  0  0  0  0
    1.2351    4.6403   -3.0328 C   0  0  0  0  0  0  0  0  0  0  0  0
    0.9462    4.3110   -1.7788 N   0  0  0  0  0  0  0  0  0  0  0  0
    0.2732    3.9263    0.9584 N   0  0  0  0  0  0  0  0  0  0  0  0
   -0.0677    3.4676    2.1420 C   0  0  0  0  0  0  0  0  0  0  0  0
   -0.2514    4.0297    3.4094 C   0  0  0  0  0  0  0  0  0  0  0  0
   -0.6176    3.2863    4.5027 C   0  0  0  0  0  0  0  0  0  0  0  0
   -0.8076    1.9513    4.3433 C   0  0  0  0  0  0  0  0  0  0  0  0
   -0.6191    1.4088    3.0673 C   0  0  0  0  0  0  0  0  0  0  0  0
   -0.2608    2.1671    2.0190 N   0  0  0  0  0  0  0  0  0  0  0  0
    1.1799   -0.3559    0.0520 C   0  0  0  0  0  0  0  0  0  0  0  0
    2.5066    0.0090    0.1602 C   0  0  0  0  0  0  0  0  0  0  0  0
    3.0566    1.3465    0.5635 C   0  0  0  0  0  0  0  0  0  0  0  0
    3.2805   -1.0892   -0.1693 C   0  0  0  0  0  0  0  0  0  0  0  0
    4.7379   -1.1383   -0.1891 C   0  0  0  0  0  0  0  0  0  0  0  0
    5.4580   -1.4310    0.9449 C   0  0  0  0  0  0  0  0  0  0  0  0
    6.8522   -1.4732    0.9129 C   0  0  0  0  0  0  0  0  0  0  0  0
    7.5343   -1.2248   -0.2463 C   0  0  0  0  0  0  0  0  0  0  0  0
    8.9192   -1.2692   -0.2719 O   0  0  0  0  0  0  0  0  0  0  0  0
    9.6840   -1.5725    0.8806 C   0  0  0  0  0  0  0  0  0  0  0  0
    6.8253   -0.9321   -1.3808 C   0  0  0  0  0  0  0  0  0  0  0  0
    5.4490   -0.8880   -1.3601 C   0  0  0  0  0  0  0  0  0  0  0  0
    2.4176   -2.1140   -0.4750 C   0  0  0  0  0  0  0  0  0  0  0  0
    2.8511   -3.4780   -0.8817 C   0  0  0  0  0  0  0  0  0  0  0  0
    1.1478   -1.6497   -0.3353 N   0  0  0  0  0  0  0  0  0  0  0  0
   -0.1372   -2.4108   -0.5790 B   0  0  0  0  0  4  0  0  0  0  0  0
   -0.1665   -3.5754    0.3063 F   0  0  0  0  0  0  0  0  0  0  0  0
   -0.2241   -2.8889   -1.9535 F   0  0  0  0  0  0  0  0  0  0  0  0
   -1.3813   -1.5717   -0.2951 N   0  0  0  0  0  4  0  0  0  0  0  0
   -2.6171   -1.9375   -0.3743 C   0  0  0  0  0  0  0  0  0  0  0  0
   -3.1421   -3.2869   -0.7700 C   0  0  0  0  0  0  0  0  0  0  0  0
   -5.6104   -1.3544   -1.0096 C   0  0  0  0  0  0  0  0  0  0  0  0
   -6.9848   -1.3449   -1.0071 C   0  0  0  0  0  0  0  0  0  0  0  0
   -9.4165   -2.3892   -1.2599 H   0  0  0  0  0  0  0  0  0  0  0  0
   -9.5589   -0.7844   -2.0263 H   0  0  0  0  0  0  0  0  0  0  0  0
  -10.8849   -1.3707   -0.8729 H   0  0  0  0  0  0  0  0  0  0  0  0
   -7.5287    0.2466    1.8543 H   0  0  0  0  0  0  0  0  0  0  0  0
   -5.0514    0.2434    1.8945 H   0  0  0  0  0  0  0  0  0  0  0  0
   -2.5212    2.4263    0.2263 H   0  0  0  0  0  0  0  0  0  0  0  0
   -3.1881    1.7200    1.7912 H   0  0  0  0  0  0  0  0  0  0  0  0
   -4.1337    1.7273    0.2838 H   0  0  0  0  0  0  0  0  0  0  0  0
    0.3361    1.0933   -2.0142 H   0  0  0  0  0  0  0  0  0  0  0  0
    0.8845    1.5764   -4.3709 H   0  0  0  0  0  0  0  0  0  0  0  0
    1.4511    3.8875   -5.0322 H   0  0  0  0  0  0  0  0  0  0  0  0
    1.4857    5.6395   -3.3549 H   0  0  0  0  0  0  0  0  0  0  0  0
   -0.0946    5.0859    3.5084 H   0  0  0  0  0  0  0  0  0  0  0  0
   -0.7631    3.7100    5.4928 H   0  0  0  0  0  0  0  0  0  0  0  0
   -1.0966    1.2806    5.1437 H   0  0  0  0  0  0  0  0  0  0  0  0
   -0.7733    0.3417    2.9491 H   0  0  0  0  0  0  0  0  0  0  0  0
    2.5323    1.7147    1.4574 H   0  0  0  0  0  0  0  0  0  0  0  0
    3.1090    2.0419   -0.2762 H   0  0  0  0  0  0  0  0  0  0  0  0
    4.1252    1.1971    0.9024 H   0  0  0  0  0  0  0  0  0  0  0  0
    4.9456   -1.6333    1.8814 H   0  0  0  0  0  0  0  0  0  0  0  0
    7.3827   -1.7063    1.8194 H   0  0  0  0  0  0  0  0  0  0  0  0
    9.5401   -2.6744    1.0495 H   0  0  0  0  0  0  0  0  0  0  0  0
   10.7649   -1.4173    0.7124 H   0  0  0  0  0  0  0  0  0  0  0  0
    9.3173   -0.9800    1.7417 H   0  0  0  0  0  0  0  0  0  0  0  0
    7.3114   -0.7263   -2.3259 H   0  0  0  0  0  0  0  0  0  0  0  0
    4.8900   -0.6624   -2.2332 H   0  0  0  0  0  0  0  0  0  0  0  0
    3.0850   -4.0724    0.0492 H   0  0  0  0  0  0  0  0  0  0  0  0
    2.0121   -4.0305   -1.3609 H   0  0  0  0  0  0  0  0  0  0  0  0
    3.7112   -3.4748   -1.5655 H   0  0  0  0  0  0  0  0  0  0  0  0
   -3.2047   -3.3601   -1.8536 H   0  0  0  0  0  0  0  0  0  0  0  0
   -4.1421   -3.4733   -0.3441 H   0  0  0  0  0  0  0  0  0  0  0  0
   -2.4949   -4.1043   -0.3467 H   0  0  0  0  0  0  0  0  0  0  0  0
   -5.0286   -1.7988   -1.8052 H   0  0  0  0  0  0  0  0  0  0  0  0
   -7.5473   -1.8011   -1.8371 H   0  0  0  0  0  0  0  0  0  0  0  0
  1  2  1  0
  2  3  1  0
  3  4  2  0
  4  5  1  0
  5  6  2  0
  6  7  1  0
  7  8  2  0
  8  9  1  0
  8 10  1  0
 10 11  2  0
 11 12  1  0
 12 13  2  0
 13 14  1  0
 14 15  2  0
 15 16  1  0
 16 17  2  0
 17 18  1  0
 18 19  2  0
 13 20  1  0
 20 21  2  0
 21 22  1  0
 22 23  2  0
 23 24  1  0
 24 25  2  0
 25 26  1  0
 11 27  1  0
 27 28  2  0
 28 29  1  0
 28 30  1  0
 30 31  1  0
 31 32  2  0
 32 33  1  0
 33 34  2  0
 34 35  1  0
 35 36  1  0
 34 37  1  0
 37 38  2  0
 30 39  2  0
 39 40  1  0
 39 41  1  0
 41 42  1  0
 42 43  1  0
 42 44  1  0
 42 45  1  0
 45 46  2  0
 46 47  1  0
  6 48  1  0
 48 49  2  0
 49  3  1  0
 46  7  1  0
 45 10  1  0
 26 12  1  0
 41 27  1  0
 19 14  1  0
 26 21  1  0
 38 31  1  0
  1 50  1  0
  1 51  1  0
  1 52  1  0
  4 53  1  0
  5 54  1  0
  9 55  1  0
  9 56  1  0
  9 57  1  0
 15 58  1  0
 16 59  1  0
 17 60  1  0
 18 61  1  0
 22 62  1  0
 23 63  1  0
 24 64  1  0
 25 65  1  0
 29 66  1  0
 29 67  1  0
 29 68  1  0
 32 69  1  0
 33 70  1  0
 36 71  1  0
 36 72  1  0
 36 73  1  0
 37 74  1  0
 38 75  1  0
 40 76  1  0
 40 77  1  0
 40 78  1  0
 47 79  1  0
 47 80  1  0
 47 81  1  0
 48 82  1  0
 49 83  1  0
M  CHG  2  42  -1  45   1
M  END
