
     RDKit          3D

 44 48  0  0  0  0  0  0  0  0999 V2000
    3.2275   -2.2712   -1.8805 C   0  0  0  0  0  0  0  0  0  0  0  0
    2.1663   -1.6684   -1.5900 C   0  0  0  0  0  0  0  0  0  0  0  0
    1.0259   -1.0004   -1.2595 C   0  0  0  0  0  0  0  0  0  0  0  0
    0.3595   -1.1219   -0.0310 C   0  0  0  0  0  0  0  0  0  0  0  0
   -0.4519   -0.4619    0.5859 C   0  0  0  0  0  0  0  0  0  0  0  0
   -0.9210    0.8319    0.0151 C   0  0  0  0  0  0  0  0  0  0  0  0
   -1.9021    1.5344    0.7036 N   0  0  0  0  0  0  0  0  0  0  0  0
   -3.2481    1.1151    0.5661 C   0  0  0  0  0  0  0  0  0  0  0  0
   -3.9061    0.1278   -0.0403 C   0  0  0  0  0  0  0  0  0  0  0  0
   -5.3151    0.0483    0.0398 C   0  0  0  0  0  0  0  0  0  0  0  0
   -6.0940    0.9127    0.6859 C   0  0  0  0  0  0  0  0  0  0  0  0
   -5.3825    1.9499    1.3181 C   0  0  0  0  0  0  0  0  0  0  0  0
   -4.0378    2.0774    1.2942 C   0  0  0  0  0  0  0  0  0  0  0  0
   -3.1649    2.9531    1.8741 C   0  0  0  0  0  0  0  0  0  0  0  0
   -3.2647    3.7137    3.0064 C   0  0  0  0  0  0  0  0  0  0  0  0
   -2.1432    4.1586    3.7452 C   0  0  0  0  0  0  0  0  0  0  0  0
   -0.9128    3.8005    3.2677 C   0  0  0  0  0  0  0  0  0  0  0  0
   -0.6756    3.0624    2.1608 C   0  0  0  0  0  0  0  0  0  0  0  0
   -1.8589    2.6469    1.4962 C   0  0  0  0  0  0  0  0  0  0  0  0
   -0.2873    0.9512   -1.1383 C   0  0  0  0  0  0  0  0  0  0  0  0
    0.5984    0.3331   -1.9480 C   0  0  0  0  0  0  0  0  0  0  0  0
    4.4478   -2.9456   -2.2072 C   0  0  0  0  0  0  0  0  0  0  0  0
    5.1549   -3.4494   -1.0569 C   0  0  0  0  0  0  0  0  0  0  0  0
    6.3449   -4.1227   -1.2572 C   0  0  0  0  0  0  0  0  0  0  0  0
    6.8319   -4.3064   -2.4748 C   0  0  0  0  0  0  0  0  0  0  0  0
    6.1903   -3.8430   -3.7012 C   0  0  0  0  0  0  0  0  0  0  0  0
    5.0031   -3.1847   -3.3535 C   0  0  0  0  0  0  0  0  0  0  0  0
    0.9343   -2.0123    0.5228 H   0  0  0  0  0  0  0  0  0  0  0  0
   -0.9786   -0.7366    1.5170 H   0  0  0  0  0  0  0  0  0  0  0  0
   -3.4207   -0.6035   -0.6306 H   0  0  0  0  0  0  0  0  0  0  0  0
   -5.7652   -0.8695   -0.4010 H   0  0  0  0  0  0  0  0  0  0  0  0
   -7.1749    0.8990    0.7979 H   0  0  0  0  0  0  0  0  0  0  0  0
   -5.9446    2.7770    1.7690 H   0  0  0  0  0  0  0  0  0  0  0  0
   -4.2646    3.9887    3.3796 H   0  0  0  0  0  0  0  0  0  0  0  0
   -2.3240    4.6967    4.6060 H   0  0  0  0  0  0  0  0  0  0  0  0
   -0.0239    4.2884    3.8640 H   0  0  0  0  0  0  0  0  0  0  0  0
    0.2845    2.8413    1.7506 H   0  0  0  0  0  0  0  0  0  0  0  0
   -0.5063    1.9629   -1.7607 H   0  0  0  0  0  0  0  0  0  0  0  0
    0.9262    0.5262   -2.8405 H   0  0  0  0  0  0  0  0  0  0  0  0
    4.7392   -3.3333   -0.1068 H   0  0  0  0  0  0  0  0  0  0  0  0
    6.9319   -4.5519   -0.4123 H   0  0  0  0  0  0  0  0  0  0  0  0
    7.7979   -4.8265   -2.6836 H   0  0  0  0  0  0  0  0  0  0  0  0
    6.5556   -4.0201   -4.6332 H   0  0  0  0  0  0  0  0  0  0  0  0
    4.4487   -2.8679   -4.2930 H   0  0  0  0  0  0  0  0  0  0  0  0
  1  2  3  0
  2  3  1  0
  3  4  2  0
  4  5  1  0
  5  6  2  0
  6  7  1  0
  7  8  1  0
  8  9  2  0
  9 10  1  0
 10 11  2  0
 11 12  1  0
 12 13  2  0
 13 14  1  0
 14 15  2  0
 15 16  1  0
 16 17  2  0
 17 18  1  0
 18 19  2  0
  6 20  1  0
 20 21  2  0
  1 22  1  0
 22 23  2  0
 23 24  1  0
 24 25  2  0
 25 26  1  0
 26 27  2  0
 21  3  1  0
 27 22  1  0
 19  7  1  0
 13  8  1  0
 19 14  1  0
  4 28  1  0
  5 29  1  0
  9 30  1  0
 10 31  1  0
 11 32  1  0
 12 33  1  0
 15 34  1  0
 16 35  1  0
 17 36  1  0
 18 37  1  0
 20 38  1  0
 21 39  1  0
 23 40  1  0
 24 41  1  0
 25 42  1  0
 26 43  1  0
 27 44  1  0
M  END
