
     RDKit          3D

 77 81  0  0  0  0  0  0  0  0999 V2000
   12.3688    1.5629    2.3439 C   0  0  0  0  0  0  0  0  0  0  0  0
   12.0893    0.3333    1.5280 C   0  0  0  0  0  0  0  0  0  0  0  0
   11.1986    0.5848    0.4053 N   0  0  0  0  0  0  0  0  0  0  0  0
   11.6862    1.3915   -0.6824 C   0  0  0  0  0  0  0  0  0  0  0  0
   10.6930    1.5783   -1.7851 C   0  0  0  0  0  0  0  0  0  0  0  0
    9.8892    0.0452    0.4126 C   0  0  0  0  0  0  0  0  0  0  0  0
    9.6710   -1.3288    0.5341 C   0  0  0  0  0  0  0  0  0  0  0  0
    8.3877   -1.8287    0.5464 C   0  0  0  0  0  0  0  0  0  0  0  0
    7.2757   -1.0063    0.4404 C   0  0  0  0  0  0  0  0  0  0  0  0
    5.9959   -1.5003    0.4522 C   0  0  0  0  0  0  0  0  0  0  0  0
    4.9089   -0.6240    0.3411 C   0  0  0  0  0  0  0  0  0  0  0  0
    3.6005   -1.1886    0.3723 C   0  0  0  0  0  0  0  0  0  0  0  0
    2.4482   -0.5622    0.2506 C   0  0  0  0  0  0  0  0  0  0  0  0
    1.1918   -1.2907    0.3067 C   0  0  0  0  0  0  0  0  0  0  0  0
    0.0574   -0.6397    0.1782 C   0  0  0  0  0  0  0  0  0  0  0  0
   -1.2252   -1.3331    0.2309 C   0  0  0  0  0  0  0  0  0  0  0  0
   -2.4946   -0.5854    0.0797 C   0  0  0  0  0  0  0  0  0  0  0  0
   -3.6566   -1.1588    0.1317 C   0  0  0  0  0  0  0  0  0  0  0  0
   -4.9688   -0.5612   -0.0005 C   0  0  0  0  0  0  0  0  0  0  0  0
   -6.0790   -1.4224    0.1712 C   0  0  0  0  0  0  0  0  0  0  0  0
   -7.3241   -0.8604    0.0298 C   0  0  0  0  0  0  0  0  0  0  0  0
   -8.4575   -1.6224    0.1818 C   0  0  0  0  0  0  0  0  0  0  0  0
   -9.7358   -1.1036    0.0508 C   0  0  0  0  0  0  0  0  0  0  0  0
   -9.8676    0.2366   -0.2455 C   0  0  0  0  0  0  0  0  0  0  0  0
  -11.1446    0.8411   -0.3853 N   0  0  0  0  0  0  0  0  0  0  0  0
  -11.9417    0.7954   -1.5978 C   0  0  0  0  0  0  0  0  0  0  0  0
  -11.2713    0.0002   -2.6870 C   0  0  0  0  0  0  0  0  0  0  0  0
  -11.7168    1.5666    0.7370 C   0  0  0  0  0  0  0  0  0  0  0  0
  -11.7470    3.0406    0.3548 C   0  0  0  0  0  0  0  0  0  0  0  0
   -8.7433    1.0151   -0.4010 C   0  0  0  0  0  0  0  0  0  0  0  0
   -7.4774    0.4907   -0.2682 C   0  0  0  0  0  0  0  0  0  0  0  0
   -6.4193    1.2374   -0.4158 O   0  0  0  0  0  0  0  0  0  0  0  0
   -5.1751    0.7494   -0.2906 C   0  0  0  0  0  0  0  0  0  0  0  0
   -4.2035    1.5284   -0.4472 O   0  0  0  0  0  0  0  0  0  0  0  0
   -1.2383   -2.5685    0.4041 O   0  0  0  0  0  3  0  0  0  0  0  0
   -0.0709   -3.4545    0.5697 B   0  0  0  0  0  4  0  0  0  0  0  0
   -0.0525   -4.1070    1.8709 F   0  0  0  0  0  0  0  0  0  0  0  0
   -0.1230   -4.4933   -0.4447 F   0  0  0  0  0  0  0  0  0  0  0  0
    1.1737   -2.6467    0.4909 O   0  0  0  0  0  0  0  0  0  0  0  0
    5.1879    0.7120    0.2236 C   0  0  0  0  0  0  0  0  0  0  0  0
    4.3053    1.5959    0.1174 O   0  0  0  0  0  0  0  0  0  0  0  0
    6.4409    1.1099    0.2205 O   0  0  0  0  0  0  0  0  0  0  0  0
    7.4828    0.3398    0.3205 C   0  0  0  0  0  0  0  0  0  0  0  0
    8.7825    0.8627    0.3067 C   0  0  0  0  0  0  0  0  0  0  0  0
   12.9273    2.3314    1.7436 H   0  0  0  0  0  0  0  0  0  0  0  0
   11.4262    2.0242    2.6579 H   0  0  0  0  0  0  0  0  0  0  0  0
   12.9650    1.2535    3.2467 H   0  0  0  0  0  0  0  0  0  0  0  0
   11.6328   -0.4418    2.1622 H   0  0  0  0  0  0  0  0  0  0  0  0
   13.0386   -0.1031    1.1431 H   0  0  0  0  0  0  0  0  0  0  0  0
   12.0337    2.3800   -0.2596 H   0  0  0  0  0  0  0  0  0  0  0  0
   12.6274    0.9187   -1.0637 H   0  0  0  0  0  0  0  0  0  0  0  0
   11.2554    1.6089   -2.7568 H   0  0  0  0  0  0  0  0  0  0  0  0
   10.1755    2.5658   -1.7049 H   0  0  0  0  0  0  0  0  0  0  0  0
    9.9482    0.7699   -1.8368 H   0  0  0  0  0  0  0  0  0  0  0  0
   10.5365   -1.9629    0.6146 H   0  0  0  0  0  0  0  0  0  0  0  0
    8.1980   -2.8870    0.6410 H   0  0  0  0  0  0  0  0  0  0  0  0
    5.8572   -2.5721    0.5476 H   0  0  0  0  0  0  0  0  0  0  0  0
    3.4875   -2.2926    0.5172 H   0  0  0  0  0  0  0  0  0  0  0  0
    2.4606    0.5148    0.1059 H   0  0  0  0  0  0  0  0  0  0  0  0
    0.0783    0.4197    0.0330 H   0  0  0  0  0  0  0  0  0  0  0  0
   -2.4112    0.4600   -0.0733 H   0  0  0  0  0  0  0  0  0  0  0  0
   -3.5993   -2.2598    0.3005 H   0  0  0  0  0  0  0  0  0  0  0  0
   -5.9359   -2.4658    0.4039 H   0  0  0  0  0  0  0  0  0  0  0  0
   -8.3530   -2.6632    0.4104 H   0  0  0  0  0  0  0  0  0  0  0  0
  -10.6318   -1.7204    0.1734 H   0  0  0  0  0  0  0  0  0  0  0  0
  -12.1292    1.8396   -1.9198 H   0  0  0  0  0  0  0  0  0  0  0  0
  -12.9324    0.3423   -1.3743 H   0  0  0  0  0  0  0  0  0  0  0  0
  -11.4063   -1.0940   -2.5285 H   0  0  0  0  0  0  0  0  0  0  0  0
  -11.6425    0.2968   -3.6903 H   0  0  0  0  0  0  0  0  0  0  0  0
  -10.1695    0.1984   -2.6419 H   0  0  0  0  0  0  0  0  0  0  0  0
  -12.7453    1.2651    0.9614 H   0  0  0  0  0  0  0  0  0  0  0  0
  -11.1274    1.4111    1.6856 H   0  0  0  0  0  0  0  0  0  0  0  0
  -12.7239    3.2184   -0.1495 H   0  0  0  0  0  0  0  0  0  0  0  0
  -11.6140    3.6937    1.2265 H   0  0  0  0  0  0  0  0  0  0  0  0
  -10.9551    3.2291   -0.4058 H   0  0  0  0  0  0  0  0  0  0  0  0
   -8.8738    2.0701   -0.6355 H   0  0  0  0  0  0  0  0  0  0  0  0
    8.9011    1.9200    0.2128 H   0  0  0  0  0  0  0  0  0  0  0  0
  1  2  1  0
  2  3  1  0
  3  4  1  0
  4  5  1  0
  3  6  1  0
  6  7  2  0
  7  8  1  0
  8  9  2  0
  9 10  1  0
 10 11  2  0
 11 12  1  0
 12 13  2  0
 13 14  1  0
 14 15  2  0
 15 16  1  0
 16 17  1  0
 17 18  2  0
 18 19  1  0
 19 20  2  0
 20 21  1  0
 21 22  2  0
 22 23  1  0
 23 24  2  0
 24 25  1  0
 25 26  1  0
 26 27  1  0
 25 28  1  0
 28 29  1  0
 24 30  1  0
 30 31  2  0
 31 32  1  0
 32 33  1  0
 33 34  2  0
 16 35  2  0
 35 36  1  0
 36 37  1  0
 36 38  1  0
 36 39  1  0
 11 40  1  0
 40 41  2  0
 40 42  1  0
 42 43  1  0
 43 44  2  0
 44  6  1  0
 43  9  1  0
 39 14  1  0
 33 19  1  0
 31 21  1  0
  1 45  1  0
  1 46  1  0
  1 47  1  0
  2 48  1  0
  2 49  1  0
  4 50  1  0
  4 51  1  0
  5 52  1  0
  5 53  1  0
  5 54  1  0
  7 55  1  0
  8 56  1  0
 10 57  1  0
 12 58  1  0
 13 59  1  0
 15 60  1  0
 17 61  1  0
 18 62  1  0
 20 63  1  0
 22 64  1  0
 23 65  1  0
 26 66  1  0
 26 67  1  0
 27 68  1  0
 27 69  1  0
 27 70  1  0
 28 71  1  0
 28 72  1  0
 29 73  1  0
 29 74  1  0
 29 75  1  0
 30 76  1  0
 44 77  1  0
M  CHG  2  35   1  36  -1
M  END
