
     RDKit          3D

 33 35  0  0  0  0  0  0  0  0999 V2000
    6.0261   -0.6193    0.1390 C   0  0  0  0  0  0  0  0  0  0  0  0
    4.5942   -0.2700   -0.1256 C   0  0  0  0  0  0  0  0  0  0  0  0
    4.3211    0.6299   -1.1334 C   0  0  0  0  0  0  0  0  0  0  0  0
    2.9824    0.9416   -1.3638 C   0  0  0  0  0  0  0  0  0  0  0  0
    1.9724    0.3747   -0.6159 C   0  0  0  0  0  0  0  0  0  0  0  0
    0.5909    0.7333   -0.8959 C   0  0  0  0  0  0  0  0  0  0  0  0
    0.4149    1.5488   -1.8161 O   0  0  0  0  0  0  0  0  0  0  0  0
   -0.5117    0.1742   -0.1481 C   0  0  0  0  0  0  0  0  0  0  0  0
   -1.7901    0.4444   -0.3363 C   0  0  0  0  0  0  0  0  0  0  0  0
   -2.3422    1.3461   -1.3197 C   0  0  0  0  0  0  0  0  0  0  0  0
   -1.7633    2.0351   -2.1667 O   0  0  0  0  0  0  0  0  0  0  0  0
   -3.7742    1.3471   -1.1839 N   0  0  0  0  0  0  0  0  0  0  0  0
   -4.1020    0.4555   -0.1281 C   0  0  0  0  0  0  0  0  0  0  0  0
   -5.3203    0.0932    0.4047 C   0  0  0  0  0  0  0  0  0  0  0  0
   -5.3709   -0.7960    1.4313 C   0  0  0  0  0  0  0  0  0  0  0  0
   -4.2355   -1.3566    1.9669 C   0  0  0  0  0  0  0  0  0  0  0  0
   -3.0191   -0.9939    1.4338 C   0  0  0  0  0  0  0  0  0  0  0  0
   -2.9459   -0.0943    0.3931 C   0  0  0  0  0  0  0  0  0  0  0  0
    2.2474   -0.5164    0.3818 C   0  0  0  0  0  0  0  0  0  0  0  0
    3.5803   -0.8247    0.6086 C   0  0  0  0  0  0  0  0  0  0  0  0
    6.0768   -1.6760    0.4983 H   0  0  0  0  0  0  0  0  0  0  0  0
    6.3905   -0.0030    0.9909 H   0  0  0  0  0  0  0  0  0  0  0  0
    6.6563   -0.4606   -0.7617 H   0  0  0  0  0  0  0  0  0  0  0  0
    5.1183    1.0696   -1.7149 H   0  0  0  0  0  0  0  0  0  0  0  0
    2.7634    1.6501   -2.1569 H   0  0  0  0  0  0  0  0  0  0  0  0
   -0.3457   -0.5479    0.6658 H   0  0  0  0  0  0  0  0  0  0  0  0
   -4.4364    1.9056   -1.7623 H   0  0  0  0  0  0  0  0  0  0  0  0
   -6.2405    0.5056    0.0188 H   0  0  0  0  0  0  0  0  0  0  0  0
   -6.3460   -1.0647    1.8331 H   0  0  0  0  0  0  0  0  0  0  0  0
   -4.3356   -2.0611    2.7859 H   0  0  0  0  0  0  0  0  0  0  0  0
   -2.1373   -1.4326    1.8535 H   0  0  0  0  0  0  0  0  0  0  0  0
    1.4966   -0.9953    1.0038 H   0  0  0  0  0  0  0  0  0  0  0  0
    3.7849   -1.5426    1.4140 H   0  0  0  0  0  0  0  0  0  0  0  0
  1  2  1  0
  2  3  2  0
  3  4  1  0
  4  5  2  0
  5  6  1  0
  6  7  2  0
  6  8  1  0
  8  9  2  0
  9 10  1  0
 10 11  2  0
 10 12  1  0
 12 13  1  0
 13 14  2  0
 14 15  1  0
 15 16  2  0
 16 17  1  0
 17 18  2  0
  5 19  1  0
 19 20  2  0
 20  2  1  0
 18  9  1  0
 18 13  1  0
  1 21  1  0
  1 22  1  0
  1 23  1  0
  3 24  1  0
  4 25  1  0
  8 26  1  0
 12 27  1  0
 14 28  1  0
 15 29  1  0
 16 30  1  0
 17 31  1  0
 19 32  1  0
 20 33  1  0
M  END
