
     RDKit          3D

 10  9  0  0  0  0  0  0  0  0999 V2000
   -1.0761    0.8561    2.6137 N   0  0  0  0  0  0  0  0  0  0  0  0
   -0.8430    0.6635    1.5143 C   0  0  0  0  0  0  0  0  0  0  0  0
   -0.5471    0.4151    0.0964 C   0  0  0  0  0  0  0  0  0  0  0  0
   -1.3894    0.9247   -0.9086 C   0  0  0  0  0  0  0  0  0  0  0  0
   -2.0697    1.3577   -1.7423 N   0  0  0  0  0  0  0  0  0  0  0  0
    0.5029   -0.3308   -0.1577 C   0  0  0  0  0  0  0  0  0  0  0  0
    1.3183   -0.8751    0.9061 C   0  0  0  0  0  0  0  0  0  0  0  0
    1.9510   -1.2970    1.7558 N   0  0  0  0  0  0  0  0  0  0  0  0
    0.9037   -0.7038   -1.4966 C   0  0  0  0  0  0  0  0  0  0  0  0
    1.2493   -1.0104   -2.5811 N   0  0  0  0  0  0  0  0  0  0  0  0
  1  2  3  0
  2  3  1  0
  3  4  1  0
  4  5  3  0
  3  6  2  3
  6  7  1  0
  7  8  3  0
  6  9  1  0
  9 10  3  0
M  END
