
     RDKit          3D

 70 75  0  0  0  0  0  0  0  0999 V2000
   -8.5924    2.8250    0.5061 C   0  0  0  0  0  0  0  0  0  0  0  0
   -8.0208    1.7143    1.4013 C   0  0  0  0  0  0  0  0  0  0  0  0
   -9.1518    0.9823    2.0161 C   0  0  0  0  0  0  0  0  0  0  0  0
   -8.6811   -0.2000    2.9121 C   0  0  0  0  0  0  0  0  0  0  0  0
   -7.6223   -0.7410    2.0142 N   0  0  0  0  0  0  0  0  0  0  0  0
   -8.1067   -1.2379    0.7721 C   0  0  0  0  0  0  0  0  0  0  0  0
   -9.3162   -1.3519    0.5116 O   0  0  0  0  0  0  0  0  0  0  0  0
   -7.1540   -1.6281   -0.2430 C   0  0  0  0  0  0  0  0  0  0  0  0
   -7.6462   -1.9813   -1.5142 C   0  0  0  0  0  0  0  0  0  0  0  0
   -6.7294   -2.2222   -2.5048 C   0  0  0  0  0  0  0  0  0  0  0  0
   -5.3942   -2.1345   -2.2800 C   0  0  0  0  0  0  0  0  0  0  0  0
   -4.9674   -1.7882   -0.9865 C   0  0  0  0  0  0  0  0  0  0  0  0
   -3.6802   -1.6346   -0.8147 C   0  0  0  0  0  0  0  0  0  0  0  0
   -3.0278   -1.1459    0.4527 C   0  0  0  0  0  0  0  0  0  0  0  0
   -1.7659   -0.8463   -0.0311 C   0  0  0  0  0  0  0  0  0  0  0  0
   -0.7745   -0.6097   -0.4251 C   0  0  0  0  0  0  0  0  0  0  0  0
    0.4615   -0.3035   -0.9008 C   0  0  0  0  0  0  0  0  0  0  0  0
    1.4062   -0.0716   -1.2765 C   0  0  0  0  0  0  0  0  0  0  0  0
    2.7302    0.2441   -1.8277 C   0  0  0  0  0  0  0  0  0  0  0  0
    3.6278    0.2586   -0.6873 C   0  0  0  0  0  0  0  0  0  0  0  0
    4.9715    0.0473   -0.8756 C   0  0  0  0  0  0  0  0  0  0  0  0
    5.4852   -0.1777   -2.0824 C   0  0  0  0  0  0  0  0  0  0  0  0
    6.8512   -0.4509   -2.2369 C   0  0  0  0  0  0  0  0  0  0  0  0
    7.3627   -0.7318   -3.4708 C   0  0  0  0  0  0  0  0  0  0  0  0
    6.5259   -0.7537   -4.5321 C   0  0  0  0  0  0  0  0  0  0  0  0
    5.1524   -0.4854   -4.4259 C   0  0  0  0  0  0  0  0  0  0  0  0
    4.6239   -0.1886   -3.2047 C   0  0  0  0  0  0  0  0  0  0  0  0
    3.2332    0.0323   -3.0254 C   0  0  0  0  0  0  0  0  0  0  0  0
    7.7507   -0.5046   -1.0532 C   0  0  0  0  0  0  0  0  0  0  0  0
    8.9551   -0.7384   -1.1830 O   0  0  0  0  0  0  0  0  0  0  0  0
    7.1812   -0.2700    0.2408 N   0  0  0  0  0  0  0  0  0  0  0  0
    8.0772   -0.3153    1.4091 C   0  0  0  0  0  0  0  0  0  0  0  0
    8.5915    1.0538    1.5464 C   0  0  0  0  0  0  0  0  0  0  0  0
    9.6471    1.2965    2.6108 C   0  0  0  0  0  0  0  0  0  0  0  0
   10.1402    2.7372    2.3981 C   0  0  0  0  0  0  0  0  0  0  0  0
    5.8378   -0.0006    0.3425 C   0  0  0  0  0  0  0  0  0  0  0  0
    5.2246    0.2049    1.4407 O   0  0  0  0  0  0  0  0  0  0  0  0
   -3.8833   -0.8834    1.4233 C   0  0  0  0  0  0  0  0  0  0  0  0
   -5.2792   -1.0577    1.2416 C   0  0  0  0  0  0  0  0  0  0  0  0
   -5.8150   -1.5145    0.0486 C   0  0  0  0  0  0  0  0  0  0  0  0
   -6.2357   -0.6392    2.2932 C   0  0  0  0  0  0  0  0  0  0  0  0
   -5.7972   -0.2150    3.3642 O   0  0  0  0  0  0  0  0  0  0  0  0
   -9.7143    2.8151    0.6330 H   0  0  0  0  0  0  0  0  0  0  0  0
   -8.2675    3.7756    0.9047 H   0  0  0  0  0  0  0  0  0  0  0  0
   -8.3155    2.6493   -0.5875 H   0  0  0  0  0  0  0  0  0  0  0  0
   -7.4855    1.0486    0.6516 H   0  0  0  0  0  0  0  0  0  0  0  0
   -7.2679    2.1352    2.0491 H   0  0  0  0  0  0  0  0  0  0  0  0
   -9.7334    1.7366    2.6201 H   0  0  0  0  0  0  0  0  0  0  0  0
   -9.8431    0.5986    1.2869 H   0  0  0  0  0  0  0  0  0  0  0  0
   -8.2671    0.1826    3.8006 H   0  0  0  0  0  0  0  0  0  0  0  0
   -9.5111   -0.9260    2.9209 H   0  0  0  0  0  0  0  0  0  0  0  0
   -8.6953   -2.0483   -1.7086 H   0  0  0  0  0  0  0  0  0  0  0  0
   -7.0937   -2.4383   -3.5217 H   0  0  0  0  0  0  0  0  0  0  0  0
   -4.6491   -2.2830   -3.0902 H   0  0  0  0  0  0  0  0  0  0  0  0
   -2.9957   -1.9122   -1.6399 H   0  0  0  0  0  0  0  0  0  0  0  0
    3.2569    0.4329    0.2794 H   0  0  0  0  0  0  0  0  0  0  0  0
    8.4487   -0.9173   -3.5151 H   0  0  0  0  0  0  0  0  0  0  0  0
    6.9565   -0.9584   -5.5278 H   0  0  0  0  0  0  0  0  0  0  0  0
    4.4790   -0.5421   -5.2628 H   0  0  0  0  0  0  0  0  0  0  0  0
    2.5532   -0.0038   -3.8904 H   0  0  0  0  0  0  0  0  0  0  0  0
    8.9261   -1.0038    1.1090 H   0  0  0  0  0  0  0  0  0  0  0  0
    7.6410   -0.7630    2.2888 H   0  0  0  0  0  0  0  0  0  0  0  0
    8.8845    1.5903    0.6345 H   0  0  0  0  0  0  0  0  0  0  0  0
    7.6747    1.6839    1.9489 H   0  0  0  0  0  0  0  0  0  0  0  0
    9.1530    1.3458    3.6253 H   0  0  0  0  0  0  0  0  0  0  0  0
   10.4517    0.5907    2.6454 H   0  0  0  0  0  0  0  0  0  0  0  0
   11.1859    2.7624    2.7258 H   0  0  0  0  0  0  0  0  0  0  0  0
    9.4857    3.4392    2.8981 H   0  0  0  0  0  0  0  0  0  0  0  0
   10.0147    2.9204    1.2808 H   0  0  0  0  0  0  0  0  0  0  0  0
   -3.4682   -0.4838    2.3723 H   0  0  0  0  0  0  0  0  0  0  0  0
  1  2  1  0
  2  3  1  0
  3  4  1  0
  4  5  1  0
  5  6  1  0
  6  7  2  0
  6  8  1  0
  8  9  1  0
  9 10  2  0
 10 11  1  0
 11 12  2  0
 12 13  1  0
 13 14  2  0
 14 15  1  0
 15 16  3  0
 16 17  1  0
 17 18  3  0
 18 19  1  0
 19 20  2  0
 20 21  1  0
 21 22  2  0
 22 23  1  0
 23 24  2  0
 24 25  1  0
 25 26  2  0
 26 27  1  0
 27 28  2  0
 23 29  1  0
 29 30  2  0
 29 31  1  0
 31 32  1  0
 32 33  1  0
 33 34  1  0
 34 35  1  0
 31 36  1  0
 36 37  2  0
 14 38  1  0
 38 39  2  0
 39 40  1  0
 39 41  1  0
 41 42  2  0
 41  5  1  0
 40  8  2  0
 40 12  1  0
 28 19  1  0
 36 21  1  0
 27 22  1  0
  1 43  1  0
  1 44  1  0
  1 45  1  0
  2 46  1  0
  2 47  1  0
  3 48  1  0
  3 49  1  0
  4 50  1  0
  4 51  1  0
  9 52  1  0
 10 53  1  0
 11 54  1  0
 13 55  1  0
 20 56  1  0
 24 57  1  0
 25 58  1  0
 26 59  1  0
 28 60  1  0
 32 61  1  0
 32 62  1  0
 33 63  1  0
 33 64  1  0
 34 65  1  0
 34 66  1  0
 35 67  1  0
 35 68  1  0
 35 69  1  0
 38 70  1  0
M  END
