
     RDKit          3D

 54 59  0  0  0  0  0  0  0  0999 V2000
   -6.1492   -1.0045    3.3322 C   0  0  0  0  0  0  0  0  0  0  0  0
   -5.8926   -1.7546    2.2040 C   0  0  0  0  0  0  0  0  0  0  0  0
   -4.8200   -1.5367    1.3653 C   0  0  0  0  0  0  0  0  0  0  0  0
   -3.9329   -0.5131    1.6470 C   0  0  0  0  0  0  0  0  0  0  0  0
   -2.8088   -0.2619    0.7935 C   0  0  0  0  0  0  0  0  0  0  0  0
   -1.5064   -0.3398    1.1056 N   0  0  0  0  0  0  0  0  0  0  0  0
   -0.7588   -0.0321    0.0439 C   0  0  0  0  0  0  0  0  0  0  0  0
    0.7271   -0.0027   -0.0146 C   0  0  0  0  0  0  0  0  0  0  0  0
    1.4683    0.3087   -1.0925 N   0  0  0  0  0  0  0  0  0  0  0  0
    2.7771    0.2351   -0.7921 C   0  0  0  0  0  0  0  0  0  0  0  0
    3.9454    0.4906   -1.6644 C   0  0  0  0  0  0  0  0  0  0  0  0
    4.8233   -0.5119   -1.9514 C   0  0  0  0  0  0  0  0  0  0  0  0
    5.9011   -0.2458   -2.7640 C   0  0  0  0  0  0  0  0  0  0  0  0
    6.1368    1.0032   -3.3079 C   0  0  0  0  0  0  0  0  0  0  0  0
    5.2346    2.0022   -3.0032 C   0  0  0  0  0  0  0  0  0  0  0  0
    4.1529    1.7477   -2.1913 C   0  0  0  0  0  0  0  0  0  0  0  0
    2.8117   -0.1404    0.5362 C   0  0  0  0  0  0  0  0  0  0  0  0
    3.9948   -0.3640    1.3640 C   0  0  0  0  0  0  0  0  0  0  0  0
    4.8623    0.6930    1.6084 C   0  0  0  0  0  0  0  0  0  0  0  0
    5.9865    0.5143    2.3852 C   0  0  0  0  0  0  0  0  0  0  0  0
    6.2131   -0.7511    2.9069 C   0  0  0  0  0  0  0  0  0  0  0  0
    5.3423   -1.7996    2.6579 C   0  0  0  0  0  0  0  0  0  0  0  0
    4.2251   -1.6033    1.8804 C   0  0  0  0  0  0  0  0  0  0  0  0
    1.5566   -0.2673    0.9462 O   0  0  0  0  0  0  0  0  0  0  0  0
   -1.5612    0.2408   -0.9402 O   0  0  0  0  0  0  0  0  0  0  0  0
   -2.7943    0.1178   -0.5431 C   0  0  0  0  0  0  0  0  0  0  0  0
   -3.9568    0.3386   -1.3543 C   0  0  0  0  0  0  0  0  0  0  0  0
   -4.8607    1.3205   -1.0230 C   0  0  0  0  0  0  0  0  0  0  0  0
   -5.9869    1.5273   -1.8206 C   0  0  0  0  0  0  0  0  0  0  0  0
   -6.2036    0.7562   -2.9391 C   0  0  0  0  0  0  0  0  0  0  0  0
   -5.3036   -0.2270   -3.2754 C   0  0  0  0  0  0  0  0  0  0  0  0
   -4.1922   -0.4195   -2.4746 C   0  0  0  0  0  0  0  0  0  0  0  0
   -4.1610    0.2668    2.7807 C   0  0  0  0  0  0  0  0  0  0  0  0
   -5.2430    0.0250    3.6014 C   0  0  0  0  0  0  0  0  0  0  0  0
   -6.9997   -1.1984    3.9726 H   0  0  0  0  0  0  0  0  0  0  0  0
   -6.5644   -2.5758    1.9378 H   0  0  0  0  0  0  0  0  0  0  0  0
   -4.6168   -2.1233    0.4802 H   0  0  0  0  0  0  0  0  0  0  0  0
    4.6513   -1.5092   -1.5286 H   0  0  0  0  0  0  0  0  0  0  0  0
    6.5997   -1.0456   -2.9917 H   0  0  0  0  0  0  0  0  0  0  0  0
    6.9691    1.2277   -3.9412 H   0  0  0  0  0  0  0  0  0  0  0  0
    5.3461    3.0203   -3.3916 H   0  0  0  0  0  0  0  0  0  0  0  0
    3.4279    2.5383   -1.9426 H   0  0  0  0  0  0  0  0  0  0  0  0
    4.6687    1.6695    1.1935 H   0  0  0  0  0  0  0  0  0  0  0  0
    6.6882    1.3262    2.5958 H   0  0  0  0  0  0  0  0  0  0  0  0
    7.1024   -0.8625    3.5123 H   0  0  0  0  0  0  0  0  0  0  0  0
    5.5761   -2.7480    3.0899 H   0  0  0  0  0  0  0  0  0  0  0  0
    3.5246   -2.3988    1.6655 H   0  0  0  0  0  0  0  0  0  0  0  0
   -4.7521    1.9531   -0.1691 H   0  0  0  0  0  0  0  0  0  0  0  0
   -6.6936    2.2851   -1.5747 H   0  0  0  0  0  0  0  0  0  0  0  0
   -7.0789    0.9407   -3.5304 H   0  0  0  0  0  0  0  0  0  0  0  0
   -5.4806   -0.8236   -4.1494 H   0  0  0  0  0  0  0  0  0  0  0  0
   -3.4892   -1.1797   -2.7287 H   0  0  0  0  0  0  0  0  0  0  0  0
   -3.4594    1.0797    3.0074 H   0  0  0  0  0  0  0  0  0  0  0  0
   -5.4460    0.6118    4.4862 H   0  0  0  0  0  0  0  0  0  0  0  0
  1  2  2  0
  2  3  1  0
  3  4  2  0
  4  5  1  0
  5  6  1  0
  6  7  2  0
  7  8  1  0
  8  9  2  0
  9 10  1  0
 10 11  1  0
 11 12  2  0
 12 13  1  0
 13 14  2  0
 14 15  1  0
 15 16  2  0
 10 17  2  0
 17 18  1  0
 18 19  2  0
 19 20  1  0
 20 21  2  0
 21 22  1  0
 22 23  2  0
 17 24  1  0
  7 25  1  0
 25 26  1  0
 26 27  1  0
 27 28  2  0
 28 29  1  0
 29 30  2  0
 30 31  1  0
 31 32  2  0
  4 33  1  0
 33 34  2  0
 34  1  1  0
 26  5  2  0
 32 27  1  0
 24  8  1  0
 16 11  1  0
 23 18  1  0
  1 35  1  0
  2 36  1  0
  3 37  1  0
 12 38  1  0
 13 39  1  0
 14 40  1  0
 15 41  1  0
 16 42  1  0
 19 43  1  0
 20 44  1  0
 21 45  1  0
 22 46  1  0
 23 47  1  0
 28 48  1  0
 29 49  1  0
 30 50  1  0
 31 51  1  0
 32 52  1  0
 33 53  1  0
 34 54  1  0
M  END
