
     RDKit          3D

 18 19  0  0  0  0  0  0  0  0999 V2000
   -2.8145   -2.4746   -0.2763 O   0  0  0  0  0  0  0  0  0  0  0  0
   -1.9199   -1.5867   -0.1753 C   0  0  0  0  0  0  0  0  0  0  0  0
   -2.3551   -0.2904    0.0005 C   0  0  0  0  0  0  0  0  0  0  0  0
   -1.3856    0.6826    0.1114 C   0  0  0  0  0  0  0  0  0  0  0  0
   -1.7594    2.0081    0.2901 O   0  0  0  0  0  0  0  0  0  0  0  0
   -0.0454    0.3678    0.0486 C   0  0  0  0  0  0  0  0  0  0  0  0
    0.9478    1.3239    0.1569 C   0  0  0  0  0  0  0  0  0  0  0  0
    2.2882    0.9808    0.0904 C   0  0  0  0  0  0  0  0  0  0  0  0
    2.6533   -0.3395   -0.0874 C   0  0  0  0  0  0  0  0  0  0  0  0
    1.6403   -1.2778   -0.1931 C   0  0  0  0  0  0  0  0  0  0  0  0
    0.3041   -0.9559   -0.1294 C   0  0  0  0  0  0  0  0  0  0  0  0
   -0.6493   -1.8657   -0.2323 O   0  0  0  0  0  0  0  0  0  0  0  0
   -3.4217   -0.0591    0.0480 H   0  0  0  0  0  0  0  0  0  0  0  0
   -2.7322    2.2809    0.3415 H   0  0  0  0  0  0  0  0  0  0  0  0
    0.6093    2.3496    0.2959 H   0  0  0  0  0  0  0  0  0  0  0  0
    3.0238    1.7695    0.1811 H   0  0  0  0  0  0  0  0  0  0  0  0
    3.7050   -0.6064   -0.1393 H   0  0  0  0  0  0  0  0  0  0  0  0
    1.9112   -2.3071   -0.3315 H   0  0  0  0  0  0  0  0  0  0  0  0
  1  2  2  0
  2  3  1  0
  3  4  2  0
  4  5  1  0
  4  6  1  0
  6  7  2  0
  7  8  1  0
  8  9  2  0
  9 10  1  0
 10 11  2  0
 11 12  1  0
 12  2  1  0
 11  6  1  0
  3 13  1  0
  5 14  1  0
  7 15  1  0
  8 16  1  0
  9 17  1  0
 10 18  1  0
M  END
