
     RDKit          3D

 31 34  0  0  0  0  0  0  0  0999 V2000
   -3.7681    1.4094    1.0178 C   0  0  0  0  0  0  0  0  0  0  0  0
   -2.6223    1.2608    1.7938 C   0  0  0  0  0  0  0  0  0  0  0  0
   -1.5378    0.5597    1.3127 C   0  0  0  0  0  0  0  0  0  0  0  0
   -1.5694   -0.0062    0.0547 C   0  0  0  0  0  0  0  0  0  0  0  0
   -0.4525   -0.7066   -0.3938 C   0  0  0  0  0  0  0  0  0  0  0  0
    0.6990   -0.8357    0.4298 N   0  0  0  0  0  0  0  0  0  0  0  0
    0.8113   -1.5267    1.5979 C   0  0  0  0  0  0  0  0  0  0  0  0
    2.0631   -1.4050    2.0730 N   0  0  0  0  0  0  0  0  0  0  0  0
    2.7691   -0.6388    1.2224 C   0  0  0  0  0  0  0  0  0  0  0  0
    4.0690   -0.1844    1.1897 C   0  0  0  0  0  0  0  0  0  0  0  0
    4.5533    0.6117    0.1723 C   0  0  0  0  0  0  0  0  0  0  0  0
    3.6682    0.9531   -0.8490 C   0  0  0  0  0  0  0  0  0  0  0  0
    2.3603    0.5154   -0.8474 C   0  0  0  0  0  0  0  0  0  0  0  0
    1.9074   -0.2901    0.2019 C   0  0  0  0  0  0  0  0  0  0  0  0
   -0.5126   -1.2624   -1.6572 C   0  0  0  0  0  0  0  0  0  0  0  0
   -1.6355   -1.1362   -2.4600 C   0  0  0  0  0  0  0  0  0  0  0  0
   -2.7243   -0.4328   -1.9779 C   0  0  0  0  0  0  0  0  0  0  0  0
   -2.7060    0.1357   -0.7271 C   0  0  0  0  0  0  0  0  0  0  0  0
   -3.7977    0.8413   -0.2430 C   0  0  0  0  0  0  0  0  0  0  0  0
   -4.6368    1.9665    1.3933 H   0  0  0  0  0  0  0  0  0  0  0  0
   -2.6110    1.7119    2.7831 H   0  0  0  0  0  0  0  0  0  0  0  0
   -0.6628    0.4638    1.9433 H   0  0  0  0  0  0  0  0  0  0  0  0
   -0.0282   -2.0623    2.0075 H   0  0  0  0  0  0  0  0  0  0  0  0
    4.7169   -0.4760    2.0041 H   0  0  0  0  0  0  0  0  0  0  0  0
    5.5817    0.9463    0.1862 H   0  0  0  0  0  0  0  0  0  0  0  0
    4.0469    1.5748   -1.6433 H   0  0  0  0  0  0  0  0  0  0  0  0
    1.6583    0.7758   -1.6408 H   0  0  0  0  0  0  0  0  0  0  0  0
    0.3366   -1.8147   -2.0412 H   0  0  0  0  0  0  0  0  0  0  0  0
   -1.6837   -1.5695   -3.4461 H   0  0  0  0  0  0  0  0  0  0  0  0
   -3.6151   -0.3185   -2.5838 H   0  0  0  0  0  0  0  0  0  0  0  0
   -4.6776    0.9398   -0.8730 H   0  0  0  0  0  0  0  0  0  0  0  0
  1  2  2  0
  2  3  1  0
  3  4  2  0
  4  5  1  0
  5  6  1  0
  6  7  1  0
  7  8  2  0
  8  9  1  0
  9 10  2  0
 10 11  1  0
 11 12  2  0
 12 13  1  0
 13 14  2  0
  5 15  2  0
 15 16  1  0
 16 17  2  0
 17 18  1  0
 18 19  2  0
 19  1  1  0
 18  4  1  0
 14  6  1  0
 14  9  1  0
  1 20  1  0
  2 21  1  0
  3 22  1  0
  7 23  1  0
 10 24  1  0
 11 25  1  0
 12 26  1  0
 13 27  1  0
 15 28  1  0
 16 29  1  0
 17 30  1  0
 19 31  1  0
M  END
