
     RDKit          3D

 48 51  0  0  0  0  0  0  0  0999 V2000
    5.6284   -1.3151   -0.3687 C   0  0  0  0  0  0  0  0  0  0  0  0
    5.8841    0.1637   -0.3695 C   0  0  0  0  0  0  0  0  0  0  0  0
    7.3532    0.3541    0.0295 C   0  0  0  0  0  0  0  0  0  0  0  0
    5.0701    0.9197    0.6279 C   0  0  0  0  0  0  0  0  0  0  0  0
    3.6523    0.8056    0.4494 N   0  0  0  0  0  0  0  0  0  0  0  0
    2.9138    1.7033   -0.3611 C   0  0  0  0  0  0  0  0  0  0  0  0
    3.4974    2.6385   -0.9534 O   0  0  0  0  0  0  0  0  0  0  0  0
    1.4503    1.5661   -0.5308 C   0  0  0  0  0  0  0  0  0  0  0  0
    0.7643    2.4606   -1.3277 C   0  0  0  0  0  0  0  0  0  0  0  0
   -0.5895    2.3669   -1.5083 C   0  0  0  0  0  0  0  0  0  0  0  0
   -1.3275    1.3721   -0.9000 C   0  0  0  0  0  0  0  0  0  0  0  0
   -0.6620    0.4614   -0.0949 C   0  0  0  0  0  0  0  0  0  0  0  0
   -1.4267   -0.5217    0.5005 C   0  0  0  0  0  0  0  0  0  0  0  0
   -3.1134   -0.8010    0.3978 S   0  0  0  0  0  0  0  0  0  0  0  0
   -4.2827    0.0655   -0.5064 C   0  0  0  0  0  0  0  0  0  0  0  0
   -5.6949   -0.4848   -0.3275 C   0  0  0  0  0  0  0  0  0  0  0  0
   -6.1413   -1.4608   -1.1743 C   0  0  0  0  0  0  0  0  0  0  0  0
   -7.4281   -1.9940   -1.0469 C   0  0  0  0  0  0  0  0  0  0  0  0
   -8.2691   -1.5372   -0.0567 C   0  0  0  0  0  0  0  0  0  0  0  0
   -7.8189   -0.5576    0.7919 C   0  0  0  0  0  0  0  0  0  0  0  0
   -6.5373   -0.0372    0.6530 C   0  0  0  0  0  0  0  0  0  0  0  0
   -0.6493   -1.4140    1.3143 C   0  0  0  0  0  0  0  0  0  0  0  0
    0.6866   -1.2985    1.4756 C   0  0  0  0  0  0  0  0  0  0  0  0
    1.4384   -0.3124    0.8753 C   0  0  0  0  0  0  0  0  0  0  0  0
    0.7251    0.5672    0.0829 C   0  0  0  0  0  0  0  0  0  0  0  0
    2.8815   -0.2153    1.0712 C   0  0  0  0  0  0  0  0  0  0  0  0
    3.4673   -1.0664    1.8183 O   0  0  0  0  0  0  0  0  0  0  0  0
    6.3822   -1.7643   -1.0785 H   0  0  0  0  0  0  0  0  0  0  0  0
    4.6358   -1.5763   -0.7846 H   0  0  0  0  0  0  0  0  0  0  0  0
    5.8321   -1.7860    0.6137 H   0  0  0  0  0  0  0  0  0  0  0  0
    5.8020    0.5237   -1.3980 H   0  0  0  0  0  0  0  0  0  0  0  0
    7.9909    0.0616   -0.8065 H   0  0  0  0  0  0  0  0  0  0  0  0
    7.5214   -0.2814    0.9412 H   0  0  0  0  0  0  0  0  0  0  0  0
    7.4992    1.4038    0.3647 H   0  0  0  0  0  0  0  0  0  0  0  0
    5.3032    0.4793    1.6381 H   0  0  0  0  0  0  0  0  0  0  0  0
    5.4315    1.9581    0.6691 H   0  0  0  0  0  0  0  0  0  0  0  0
    1.3295    3.2453   -1.8107 H   0  0  0  0  0  0  0  0  0  0  0  0
   -1.1578    3.0668   -2.1376 H   0  0  0  0  0  0  0  0  0  0  0  0
   -2.3707    1.2906   -1.0291 H   0  0  0  0  0  0  0  0  0  0  0  0
   -4.0744    0.0098   -1.6285 H   0  0  0  0  0  0  0  0  0  0  0  0
   -4.4220    1.1547   -0.1981 H   0  0  0  0  0  0  0  0  0  0  0  0
   -5.4919   -1.8287   -1.9560 H   0  0  0  0  0  0  0  0  0  0  0  0
   -7.7441   -2.7637   -1.7352 H   0  0  0  0  0  0  0  0  0  0  0  0
   -9.2864   -1.9589    0.0438 H   0  0  0  0  0  0  0  0  0  0  0  0
   -8.4491   -0.1823    1.5710 H   0  0  0  0  0  0  0  0  0  0  0  0
   -6.1725    0.7385    1.3204 H   0  0  0  0  0  0  0  0  0  0  0  0
   -1.2451   -2.2021    1.7951 H   0  0  0  0  0  0  0  0  0  0  0  0
    1.2141   -2.0177    2.1131 H   0  0  0  0  0  0  0  0  0  0  0  0
  1  2  1  0
  2  3  1  0
  2  4  1  0
  4  5  1  0
  5  6  1  0
  6  7  2  0
  6  8  1  0
  8  9  1  0
  9 10  2  0
 10 11  1  0
 11 12  2  0
 12 13  1  0
 13 14  1  0
 14 15  1  0
 15 16  1  0
 16 17  2  0
 17 18  1  0
 18 19  2  0
 19 20  1  0
 20 21  2  0
 13 22  2  0
 22 23  1  0
 23 24  2  0
 24 25  1  0
 24 26  1  0
 26 27  2  0
 26  5  1  0
 25  8  2  0
 25 12  1  0
 21 16  1  0
  1 28  1  0
  1 29  1  0
  1 30  1  0
  2 31  1  0
  3 32  1  0
  3 33  1  0
  3 34  1  0
  4 35  1  0
  4 36  1  0
  9 37  1  0
 10 38  1  0
 11 39  1  0
 15 40  1  0
 15 41  1  0
 17 42  1  0
 18 43  1  0
 19 44  1  0
 20 45  1  0
 21 46  1  0
 22 47  1  0
 23 48  1  0
M  END
