
     RDKit          3D

 36 39  0  0  0  0  0  0  0  0999 V2000
    4.3433   -1.7372    0.7049 C   0  0  0  0  0  0  0  0  0  0  0  0
    4.5836   -0.4950    0.1370 C   0  0  0  0  0  0  0  0  0  0  0  0
    3.5001    0.3209   -0.2132 C   0  0  0  0  0  0  0  0  0  0  0  0
    2.2065   -0.1009    0.0020 C   0  0  0  0  0  0  0  0  0  0  0  0
    1.1177    0.7720   -0.3740 C   0  0  0  0  0  0  0  0  0  0  0  0
    1.0282    2.0044   -0.9314 C   0  0  0  0  0  0  0  0  0  0  0  0
   -0.1918    2.5260   -1.1457 C   0  0  0  0  0  0  0  0  0  0  0  0
   -0.5025    3.7833   -1.7104 C   0  0  0  0  0  0  0  0  0  0  0  0
   -1.8048    4.1712   -1.8625 C   0  0  0  0  0  0  0  0  0  0  0  0
   -2.8967    3.4098   -1.4971 C   0  0  0  0  0  0  0  0  0  0  0  0
   -2.6096    2.1816   -0.9452 C   0  0  0  0  0  0  0  0  0  0  0  0
   -1.2831    1.7943   -0.7938 C   0  0  0  0  0  0  0  0  0  0  0  0
   -0.5440    0.3309   -0.1435 P   0  0  0  0  0  0  0  0  0  0  0  0
   -1.3703   -1.1128    0.5267 C   0  0  0  0  0  0  0  0  0  0  0  0
   -1.6908   -2.1904   -0.2580 C   0  0  0  0  0  0  0  0  0  0  0  0
   -2.3315   -3.3142    0.2530 C   0  0  0  0  0  0  0  0  0  0  0  0
   -2.6476   -3.3340    1.5839 C   0  0  0  0  0  0  0  0  0  0  0  0
   -2.3335   -2.2642    2.3802 C   0  0  0  0  0  0  0  0  0  0  0  0
   -1.7010   -1.1642    1.8573 C   0  0  0  0  0  0  0  0  0  0  0  0
    2.0305   -1.3388    0.5667 C   0  0  0  0  0  0  0  0  0  0  0  0
    3.0456   -2.1698    0.9250 C   0  0  0  0  0  0  0  0  0  0  0  0
    5.1626   -2.3884    0.9852 H   0  0  0  0  0  0  0  0  0  0  0  0
    5.6052   -0.1891   -0.0206 H   0  0  0  0  0  0  0  0  0  0  0  0
    3.7252    1.2878   -0.6560 H   0  0  0  0  0  0  0  0  0  0  0  0
    1.9855    2.5215   -1.1836 H   0  0  0  0  0  0  0  0  0  0  0  0
    0.2607    4.4740   -2.0377 H   0  0  0  0  0  0  0  0  0  0  0  0
   -2.0544    5.1508   -2.3023 H   0  0  0  0  0  0  0  0  0  0  0  0
   -3.9112    3.7255   -1.6217 H   0  0  0  0  0  0  0  0  0  0  0  0
   -3.3531    1.4762   -0.6115 H   0  0  0  0  0  0  0  0  0  0  0  0
   -1.4633   -2.2246   -1.3135 H   0  0  0  0  0  0  0  0  0  0  0  0
   -2.5810   -4.1602   -0.3722 H   0  0  0  0  0  0  0  0  0  0  0  0
   -3.1542   -4.2208    1.9914 H   0  0  0  0  0  0  0  0  0  0  0  0
   -2.6103   -2.3397    3.4289 H   0  0  0  0  0  0  0  0  0  0  0  0
   -1.4819   -0.3553    2.5392 H   0  0  0  0  0  0  0  0  0  0  0  0
    1.0160   -1.6846    0.7423 H   0  0  0  0  0  0  0  0  0  0  0  0
    2.9058   -3.1458    1.3703 H   0  0  0  0  0  0  0  0  0  0  0  0
  1  2  2  0
  2  3  1  0
  3  4  2  0
  4  5  1  0
  5  6  2  0
  6  7  1  0
  7  8  2  0
  8  9  1  0
  9 10  2  0
 10 11  1  0
 11 12  2  0
 12 13  1  0
 13 14  1  0
 14 15  2  0
 15 16  1  0
 16 17  2  0
 17 18  1  0
 18 19  2  0
  4 20  1  0
 20 21  2  0
 21  1  1  0
 13  5  1  0
 19 14  1  0
 12  7  1  0
  1 22  1  0
  2 23  1  0
  3 24  1  0
  6 25  1  0
  8 26  1  0
  9 27  1  0
 10 28  1  0
 11 29  1  0
 15 30  1  0
 16 31  1  0
 17 32  1  0
 18 33  1  0
 19 34  1  0
 20 35  1  0
 21 36  1  0
M  END
