
     RDKit          3D

 61 65  0  0  0  0  0  0  0  0999 V2000
   -4.8898   -2.6946   -1.5299 C   0  0  0  0  0  0  0  0  0  0  0  0
   -3.5461   -1.9581   -1.3712 C   0  0  0  0  0  0  0  0  0  0  0  0
   -2.6292   -2.8280   -0.6521 C   0  0  0  0  0  0  0  0  0  0  0  0
   -3.7808   -0.5890   -1.0480 C   0  0  0  0  0  0  0  0  0  0  0  0
   -5.0497   -0.0593   -1.4180 C   0  0  0  0  0  0  0  0  0  0  0  0
   -5.3559    1.2504   -1.2372 C   0  0  0  0  0  0  0  0  0  0  0  0
   -4.4445    2.1193   -0.6836 C   0  0  0  0  0  0  0  0  0  0  0  0
   -3.2170    1.6083   -0.3207 C   0  0  0  0  0  0  0  0  0  0  0  0
   -2.2286    2.5024    0.3121 C   0  0  0  0  0  0  0  0  0  0  0  0
   -2.5962    3.9458   -0.0635 C   0  0  0  0  0  0  0  0  0  0  0  0
   -2.4950    2.3879    1.8259 C   0  0  0  0  0  0  0  0  0  0  0  0
   -2.8955    0.2597   -0.5043 C   0  0  0  0  0  0  0  0  0  0  0  0
   -1.6262   -0.1301   -0.0605 N   0  0  0  0  0  0  0  0  0  0  0  0
   -1.3820   -0.6825    1.2182 C   0  0  0  0  0  0  0  0  0  0  0  0
   -2.3379   -0.9526    2.0117 O   0  0  0  0  0  0  0  0  0  0  0  0
   -0.0397   -0.9592    1.6651 C   0  0  0  0  0  0  0  0  0  0  0  0
    0.2019   -1.4765    2.9369 C   0  0  0  0  0  0  0  0  0  0  0  0
    1.4562   -1.7311    3.4164 C   0  0  0  0  0  0  0  0  0  0  0  0
    2.5171   -1.4586    2.5956 C   0  0  0  0  0  0  0  0  0  0  0  0
    2.3031   -0.9362    1.3084 C   0  0  0  0  0  0  0  0  0  0  0  0
    3.4073   -0.6429    0.5178 C   0  0  0  0  0  0  0  0  0  0  0  0
    4.7041   -0.8864    1.0158 O   0  0  0  0  0  0  0  0  0  0  0  0
    5.7750   -0.4409    0.2493 C   0  0  0  0  0  0  0  0  0  0  0  0
    6.4136   -1.1330   -0.7393 C   0  0  0  0  0  0  0  0  0  0  0  0
    7.4857   -0.5820   -1.4511 C   0  0  0  0  0  0  0  0  0  0  0  0
    7.9316    0.6911   -1.1707 C   0  0  0  0  0  0  0  0  0  0  0  0
    7.3011    1.4096   -0.1752 C   0  0  0  0  0  0  0  0  0  0  0  0
    6.2466    0.8530    0.5176 C   0  0  0  0  0  0  0  0  0  0  0  0
    3.2344   -0.1087   -0.7396 C   0  0  0  0  0  0  0  0  0  0  0  0
    1.9597    0.1353   -1.2064 C   0  0  0  0  0  0  0  0  0  0  0  0
    0.8817   -0.1542   -0.4167 C   0  0  0  0  0  0  0  0  0  0  0  0
    1.0310   -0.6869    0.8402 C   0  0  0  0  0  0  0  0  0  0  0  0
   -0.4963    0.1313   -0.8779 C   0  0  0  0  0  0  0  0  0  0  0  0
   -0.5927    0.6180   -2.0397 O   0  0  0  0  0  0  0  0  0  0  0  0
   -5.5960   -2.3101   -0.7440 H   0  0  0  0  0  0  0  0  0  0  0  0
   -4.7162   -3.7942   -1.3858 H   0  0  0  0  0  0  0  0  0  0  0  0
   -5.3192   -2.4886   -2.5121 H   0  0  0  0  0  0  0  0  0  0  0  0
   -3.1662   -1.9599   -2.4658 H   0  0  0  0  0  0  0  0  0  0  0  0
   -2.9403   -3.0137    0.3926 H   0  0  0  0  0  0  0  0  0  0  0  0
   -2.7707   -3.8688   -1.1172 H   0  0  0  0  0  0  0  0  0  0  0  0
   -1.5481   -2.6755   -0.8163 H   0  0  0  0  0  0  0  0  0  0  0  0
   -5.8070   -0.6817   -1.8565 H   0  0  0  0  0  0  0  0  0  0  0  0
   -6.3498    1.6296   -1.5377 H   0  0  0  0  0  0  0  0  0  0  0  0
   -4.7442    3.1434   -0.5623 H   0  0  0  0  0  0  0  0  0  0  0  0
   -1.1812    2.2650    0.0726 H   0  0  0  0  0  0  0  0  0  0  0  0
   -3.0241    3.9858   -1.0884 H   0  0  0  0  0  0  0  0  0  0  0  0
   -1.6638    4.5763    0.0034 H   0  0  0  0  0  0  0  0  0  0  0  0
   -3.3341    4.3177    0.6761 H   0  0  0  0  0  0  0  0  0  0  0  0
   -3.0189    3.3115    2.1700 H   0  0  0  0  0  0  0  0  0  0  0  0
   -1.5485    2.2030    2.3375 H   0  0  0  0  0  0  0  0  0  0  0  0
   -3.1864    1.5601    2.0581 H   0  0  0  0  0  0  0  0  0  0  0  0
   -0.6655   -1.6724    3.5503 H   0  0  0  0  0  0  0  0  0  0  0  0
    1.6362   -2.1239    4.3964 H   0  0  0  0  0  0  0  0  0  0  0  0
    3.5517   -1.6205    2.8790 H   0  0  0  0  0  0  0  0  0  0  0  0
    6.0757   -2.1290   -0.9674 H   0  0  0  0  0  0  0  0  0  0  0  0
    8.0041   -1.1162   -2.2422 H   0  0  0  0  0  0  0  0  0  0  0  0
    8.7739    1.1257   -1.7323 H   0  0  0  0  0  0  0  0  0  0  0  0
    7.6693    2.4153    0.0388 H   0  0  0  0  0  0  0  0  0  0  0  0
    5.7519    1.4147    1.3024 H   0  0  0  0  0  0  0  0  0  0  0  0
    4.0941    0.1228   -1.3684 H   0  0  0  0  0  0  0  0  0  0  0  0
    1.7765    0.5620   -2.2060 H   0  0  0  0  0  0  0  0  0  0  0  0
  1  2  1  0
  2  3  1  0
  2  4  1  0
  4  5  2  0
  5  6  1  0
  6  7  2  0
  7  8  1  0
  8  9  1  0
  9 10  1  0
  9 11  1  0
  8 12  2  0
 12 13  1  0
 13 14  1  0
 14 15  2  0
 14 16  1  0
 16 17  2  0
 17 18  1  0
 18 19  2  0
 19 20  1  0
 20 21  2  0
 21 22  1  0
 22 23  1  0
 23 24  2  0
 24 25  1  0
 25 26  2  0
 26 27  1  0
 27 28  2  0
 21 29  1  0
 29 30  2  0
 30 31  1  0
 31 32  2  0
 31 33  1  0
 33 34  2  0
 12  4  1  0
 33 13  1  0
 32 16  1  0
 32 20  1  0
 28 23  1  0
  1 35  1  0
  1 36  1  0
  1 37  1  0
  2 38  1  0
  3 39  1  0
  3 40  1  0
  3 41  1  0
  5 42  1  0
  6 43  1  0
  7 44  1  0
  9 45  1  0
 10 46  1  0
 10 47  1  0
 10 48  1  0
 11 49  1  0
 11 50  1  0
 11 51  1  0
 17 52  1  0
 18 53  1  0
 19 54  1  0
 24 55  1  0
 25 56  1  0
 26 57  1  0
 27 58  1  0
 28 59  1  0
 29 60  1  0
 30 61  1  0
M  END
