
     RDKit          3D

 57 61  0  0  0  0  0  0  0  0999 V2000
    1.8544    5.4329    0.0874 C   0  0  0  0  0  0  0  0  0  0  0  0
    1.4533    3.9876   -0.0039 C   0  0  0  0  0  0  0  0  0  0  0  0
    1.1686    3.2881    1.1293 C   0  0  0  0  0  0  0  0  0  0  0  0
    0.8009    1.9933    1.0481 C   0  0  0  0  0  0  0  0  0  0  0  0
    0.6928    1.2882   -0.1694 C   0  0  0  0  0  0  0  0  0  0  0  0
    0.2700   -0.0723   -0.1225 N   0  0  0  0  0  0  0  0  0  0  0  0
    0.9866   -1.1676    0.1356 C   0  0  0  0  0  0  0  0  0  0  0  0
    2.3815   -1.3113    0.4787 C   0  0  0  0  0  0  0  0  0  0  0  0
    3.2969   -0.3202    0.4287 C   0  0  0  0  0  0  0  0  0  0  0  0
    4.6244   -0.4956    0.8022 C   0  0  0  0  0  0  0  0  0  0  0  0
    5.0611   -1.6949    1.2370 C   0  0  0  0  0  0  0  0  0  0  0  0
    6.4948   -1.8219    1.6277 C   0  0  0  0  0  0  0  0  0  0  0  0
    6.9329   -3.1255    1.6710 F   0  0  0  0  0  0  0  0  0  0  0  0
    6.5999   -1.2292    2.8876 F   0  0  0  0  0  0  0  0  0  0  0  0
    7.2797   -1.0799    0.7940 F   0  0  0  0  0  0  0  0  0  0  0  0
    4.1575   -2.7467    1.3047 C   0  0  0  0  0  0  0  0  0  0  0  0
    2.8441   -2.5522    0.9295 C   0  0  0  0  0  0  0  0  0  0  0  0
    0.0971   -2.2331    0.0783 N   0  0  0  0  0  0  0  0  0  0  0  0
   -1.1373   -1.7769   -0.2120 C   0  0  0  0  0  0  0  0  0  0  0  0
   -2.3666   -2.5421   -0.3735 C   0  0  0  0  0  0  0  0  0  0  0  0
   -3.1460   -2.7082    0.7733 C   0  0  0  0  0  0  0  0  0  0  0  0
   -4.3297   -3.4162    0.7508 C   0  0  0  0  0  0  0  0  0  0  0  0
   -4.7489   -3.9612   -0.4179 C   0  0  0  0  0  0  0  0  0  0  0  0
   -4.0133   -3.8140   -1.5618 C   0  0  0  0  0  0  0  0  0  0  0  0
   -2.8158   -3.0980   -1.5218 C   0  0  0  0  0  0  0  0  0  0  0  0
   -2.0861   -2.9661   -2.6893 O   0  0  0  0  0  0  0  0  0  0  0  0
   -1.0393   -0.4098   -0.3418 C   0  0  0  0  0  0  0  0  0  0  0  0
   -2.0864    0.5304   -0.6564 C   0  0  0  0  0  0  0  0  0  0  0  0
   -2.2957    1.0913   -1.8995 C   0  0  0  0  0  0  0  0  0  0  0  0
   -3.2859    1.9852   -2.1717 C   0  0  0  0  0  0  0  0  0  0  0  0
   -4.1357    2.3618   -1.1624 C   0  0  0  0  0  0  0  0  0  0  0  0
   -3.9664    1.8297    0.0873 C   0  0  0  0  0  0  0  0  0  0  0  0
   -2.9439    0.9112    0.3567 C   0  0  0  0  0  0  0  0  0  0  0  0
   -2.8399    0.4388    1.6304 O   0  0  0  0  0  0  0  0  0  0  0  0
    0.9746    1.9890   -1.3041 C   0  0  0  0  0  0  0  0  0  0  0  0
    1.3549    3.3325   -1.2199 C   0  0  0  0  0  0  0  0  0  0  0  0
    2.1183    5.6839    1.1742 H   0  0  0  0  0  0  0  0  0  0  0  0
    2.7936    5.6411   -0.4663 H   0  0  0  0  0  0  0  0  0  0  0  0
    1.0168    6.0609   -0.1584 H   0  0  0  0  0  0  0  0  0  0  0  0
    1.2350    3.7693    2.1154 H   0  0  0  0  0  0  0  0  0  0  0  0
    0.5502    1.4727    1.9839 H   0  0  0  0  0  0  0  0  0  0  0  0
    3.0305    0.6549    0.0657 H   0  0  0  0  0  0  0  0  0  0  0  0
    5.2565    0.3842    0.7142 H   0  0  0  0  0  0  0  0  0  0  0  0
    4.4828   -3.6901    1.6798 H   0  0  0  0  0  0  0  0  0  0  0  0
    2.1309   -3.3836    0.9629 H   0  0  0  0  0  0  0  0  0  0  0  0
   -2.8319   -2.2782    1.7245 H   0  0  0  0  0  0  0  0  0  0  0  0
   -4.9258   -3.5215    1.6609 H   0  0  0  0  0  0  0  0  0  0  0  0
   -5.7010   -4.5290   -0.4126 H   0  0  0  0  0  0  0  0  0  0  0  0
   -4.4103   -4.2598   -2.4472 H   0  0  0  0  0  0  0  0  0  0  0  0
   -1.2203   -2.4421   -2.6931 H   0  0  0  0  0  0  0  0  0  0  0  0
   -1.6161    0.7648   -2.6875 H   0  0  0  0  0  0  0  0  0  0  0  0
   -3.4200    2.3955   -3.1632 H   0  0  0  0  0  0  0  0  0  0  0  0
   -4.9450    3.0699   -1.3441 H   0  0  0  0  0  0  0  0  0  0  0  0
   -4.6210    2.1318    0.8900 H   0  0  0  0  0  0  0  0  0  0  0  0
   -3.4836    0.7345    2.3342 H   0  0  0  0  0  0  0  0  0  0  0  0
    0.8832    1.5450   -2.2380 H   0  0  0  0  0  0  0  0  0  0  0  0
    1.5880    3.8786   -2.1058 H   0  0  0  0  0  0  0  0  0  0  0  0
  1  2  1  0
  2  3  2  0
  3  4  1  0
  4  5  2  0
  5  6  1  0
  6  7  1  0
  7  8  1  0
  8  9  2  0
  9 10  1  0
 10 11  2  0
 11 12  1  0
 12 13  1  0
 12 14  1  0
 12 15  1  0
 11 16  1  0
 16 17  2  0
  7 18  2  0
 18 19  1  0
 19 20  1  0
 20 21  2  0
 21 22  1  0
 22 23  2  0
 23 24  1  0
 24 25  2  0
 25 26  1  0
 19 27  2  0
 27 28  1  0
 28 29  2  0
 29 30  1  0
 30 31  2  0
 31 32  1  0
 32 33  2  0
 33 34  1  0
  5 35  1  0
 35 36  2  0
 36  2  1  0
 27  6  1  0
 33 28  1  0
 17  8  1  0
 25 20  1  0
  1 37  1  0
  1 38  1  0
  1 39  1  0
  3 40  1  0
  4 41  1  0
  9 42  1  0
 10 43  1  0
 16 44  1  0
 17 45  1  0
 21 46  1  0
 22 47  1  0
 23 48  1  0
 24 49  1  0
 26 50  1  0
 29 51  1  0
 30 52  1  0
 31 53  1  0
 32 54  1  0
 34 55  1  0
 35 56  1  0
 36 57  1  0
M  END
