
     RDKit          3D

 60 64  0  0  0  0  0  0  0  0999 V2000
   -5.9294    3.6415   -1.5206 C   0  0  0  0  0  0  0  0  0  0  0  0
   -5.1131    2.4628   -1.0495 C   0  0  0  0  0  0  0  0  0  0  0  0
   -5.1290    1.2685   -1.7201 C   0  0  0  0  0  0  0  0  0  0  0  0
   -4.3656    0.1869   -1.2689 C   0  0  0  0  0  0  0  0  0  0  0  0
   -4.4114   -1.0812   -2.0743 C   0  0  0  0  0  0  0  0  0  0  0  0
   -3.5859    0.2922   -0.1490 C   0  0  0  0  0  0  0  0  0  0  0  0
   -2.8300   -0.8503    0.3431 C   0  0  0  0  0  0  0  0  0  0  0  0
   -1.5162   -0.8258    0.4638 C   0  0  0  0  0  0  0  0  0  0  0  0
   -0.5095    0.2029    0.1845 C   0  0  0  0  0  0  0  0  0  0  0  0
    0.6740   -0.2974    0.4956 C   0  0  0  0  0  0  0  0  0  0  0  0
    1.9617    0.3944    0.3718 C   0  0  0  0  0  0  0  0  0  0  0  0
    3.1021   -0.1803    0.7062 C   0  0  0  0  0  0  0  0  0  0  0  0
    4.3954    0.4701    0.5984 C   0  0  0  0  0  0  0  0  0  0  0  0
    4.5552    1.6347    0.1796 O   0  0  0  0  0  0  0  0  0  0  0  0
    5.5216   -0.2326    0.9792 O   0  0  0  0  0  0  0  0  0  0  0  0
    6.8383    0.2132    0.9503 C   0  0  0  0  0  0  0  0  0  0  0  0
    7.3299    0.5934   -0.3757 C   0  0  0  0  0  0  0  0  0  0  0  0
    7.7582   -0.4014   -1.2207 C   0  0  0  0  0  0  0  0  0  0  0  0
    8.2290   -0.0724   -2.4735 C   0  0  0  0  0  0  0  0  0  0  0  0
    8.2805    1.2366   -2.9002 C   0  0  0  0  0  0  0  0  0  0  0  0
    7.8499    2.2289   -2.0489 C   0  0  0  0  0  0  0  0  0  0  0  0
    7.3798    1.9025   -0.7984 C   0  0  0  0  0  0  0  0  0  0  0  0
    0.4601   -1.6527    0.9794 C   0  0  0  0  0  0  0  0  0  0  0  0
   -0.8095   -1.9346    0.9518 N   0  0  0  0  0  4  0  0  0  0  0  0
   -1.4860   -3.2235    1.3617 B   0  0  0  0  0  4  0  0  0  0  0  0
   -0.9342   -4.3470    0.5850 F   0  0  0  0  0  0  0  0  0  0  0  0
   -1.1911   -3.4665    2.7840 F   0  0  0  0  0  0  0  0  0  0  0  0
   -2.9868   -3.1630    1.2183 N   0  0  0  0  0  0  0  0  0  0  0  0
   -3.9300   -4.1096    1.5157 C   0  0  0  0  0  0  0  0  0  0  0  0
   -5.1741   -3.5989    1.2149 C   0  0  0  0  0  0  0  0  0  0  0  0
   -4.9372   -2.3304    0.7342 C   0  0  0  0  0  0  0  0  0  0  0  0
   -3.5838   -2.0615    0.7365 C   0  0  0  0  0  0  0  0  0  0  0  0
   -3.5722    1.4843    0.5180 C   0  0  0  0  0  0  0  0  0  0  0  0
   -2.7708    1.6409    1.7376 C   0  0  0  0  0  0  0  0  0  0  0  0
   -4.3331    2.5784    0.0757 C   0  0  0  0  0  0  0  0  0  0  0  0
   -6.8101    3.7371   -0.8402 H   0  0  0  0  0  0  0  0  0  0  0  0
   -6.2901    3.4967   -2.5378 H   0  0  0  0  0  0  0  0  0  0  0  0
   -5.2649    4.5141   -1.4969 H   0  0  0  0  0  0  0  0  0  0  0  0
   -5.7304    1.1315   -2.6130 H   0  0  0  0  0  0  0  0  0  0  0  0
   -4.2797   -0.8005   -3.1584 H   0  0  0  0  0  0  0  0  0  0  0  0
   -3.6364   -1.7807   -1.7726 H   0  0  0  0  0  0  0  0  0  0  0  0
   -5.4131   -1.5429   -1.9924 H   0  0  0  0  0  0  0  0  0  0  0  0
   -0.7340    1.1757   -0.2083 H   0  0  0  0  0  0  0  0  0  0  0  0
    2.0219    1.4037    0.0006 H   0  0  0  0  0  0  0  0  0  0  0  0
    3.0552   -1.1892    1.0786 H   0  0  0  0  0  0  0  0  0  0  0  0
    6.9066    1.0782    1.6730 H   0  0  0  0  0  0  0  0  0  0  0  0
    7.4673   -0.6061    1.3994 H   0  0  0  0  0  0  0  0  0  0  0  0
    7.7379   -1.4596   -0.9289 H   0  0  0  0  0  0  0  0  0  0  0  0
    8.5635   -0.8583   -3.1314 H   0  0  0  0  0  0  0  0  0  0  0  0
    8.6391    1.5414   -3.8671 H   0  0  0  0  0  0  0  0  0  0  0  0
    7.8763    3.2860   -2.3555 H   0  0  0  0  0  0  0  0  0  0  0  0
    7.0490    2.7137   -0.1492 H   0  0  0  0  0  0  0  0  0  0  0  0
    1.2365   -2.3379    1.3166 H   0  0  0  0  0  0  0  0  0  0  0  0
   -3.6990   -5.0954    1.9225 H   0  0  0  0  0  0  0  0  0  0  0  0
   -6.1345   -4.1120    1.3400 H   0  0  0  0  0  0  0  0  0  0  0  0
   -5.6981   -1.6628    0.4154 H   0  0  0  0  0  0  0  0  0  0  0  0
   -1.9175    2.3347    1.5283 H   0  0  0  0  0  0  0  0  0  0  0  0
   -3.3732    2.2009    2.5166 H   0  0  0  0  0  0  0  0  0  0  0  0
   -2.4886    0.7045    2.2246 H   0  0  0  0  0  0  0  0  0  0  0  0
   -4.3205    3.5240    0.6058 H   0  0  0  0  0  0  0  0  0  0  0  0
  1  2  1  0
  2  3  2  0
  3  4  1  0
  4  5  1  0
  4  6  2  0
  6  7  1  0
  7  8  2  0
  8  9  1  0
  9 10  2  0
 10 11  1  0
 11 12  2  0
 12 13  1  0
 13 14  2  0
 13 15  1  0
 15 16  1  0
 16 17  1  0
 17 18  2  0
 18 19  1  0
 19 20  2  0
 20 21  1  0
 21 22  2  0
 10 23  1  0
 23 24  2  0
 24 25  1  0
 25 26  1  0
 25 27  1  0
 25 28  1  0
 28 29  1  0
 29 30  2  0
 30 31  1  0
 31 32  2  0
  6 33  1  0
 33 34  1  0
 33 35  2  0
 35  2  1  0
 32  7  1  0
 24  8  1  0
 32 28  1  0
 22 17  1  0
  1 36  1  0
  1 37  1  0
  1 38  1  0
  3 39  1  0
  5 40  1  0
  5 41  1  0
  5 42  1  0
  9 43  1  0
 11 44  1  0
 12 45  1  0
 16 46  1  0
 16 47  1  0
 18 48  1  0
 19 49  1  0
 20 50  1  0
 21 51  1  0
 22 52  1  0
 23 53  1  0
 29 54  1  0
 30 55  1  0
 31 56  1  0
 34 57  1  0
 34 58  1  0
 34 59  1  0
 35 60  1  0
M  CHG  2  24   1  25  -1
M  END
