
     RDKit          3D

 13 13  0  0  0  0  0  0  0  0999 V2000
    2.1926   -1.9285    2.2383 N   0  0  0  0  0  0  0  0  0  0  0  0
    1.4993   -1.3196    1.5150 C   0  0  0  0  0  0  0  0  0  0  0  0
    0.6410   -0.5614    0.6421 C   0  0  0  0  0  0  0  0  0  0  0  0
    1.1203    0.0231   -0.5092 C   0  0  0  0  0  0  0  0  0  0  0  0
    0.3140    0.7605   -1.3699 C   0  0  0  0  0  0  0  0  0  0  0  0
   -1.0199    0.8860   -1.0147 C   0  0  0  0  0  0  0  0  0  0  0  0
   -1.5571    0.3288    0.1164 C   0  0  0  0  0  0  0  0  0  0  0  0
   -0.7110   -0.3916    0.9329 C   0  0  0  0  0  0  0  0  0  0  0  0
    2.1754   -0.0892   -0.7690 H   0  0  0  0  0  0  0  0  0  0  0  0
    0.6862    1.2197   -2.2726 H   0  0  0  0  0  0  0  0  0  0  0  0
   -1.6370    1.4633   -1.6945 H   0  0  0  0  0  0  0  0  0  0  0  0
   -2.6103    0.4588    0.3466 H   0  0  0  0  0  0  0  0  0  0  0  0
   -1.0935   -0.8501    1.8387 H   0  0  0  0  0  0  0  0  0  0  0  0
  1  2  3  0
  2  3  1  0
  3  4  2  0
  4  5  1  0
  5  6  2  0
  6  7  1  0
  7  8  2  0
  8  3  1  0
  4  9  1  0
  5 10  1  0
  6 11  1  0
  7 12  1  0
  8 13  1  0
M  END
