
     RDKit          3D

 27 28  0  0  0  0  0  0  0  0999 V2000
   -0.2732   -3.4339   -1.2024 N   0  0  0  0  0  0  0  0  0  0  0  0
   -0.7428   -2.2807   -0.7945 C   0  0  0  0  0  0  0  0  0  0  0  0
   -1.3132   -0.9204   -0.2875 C   0  0  0  0  0  0  0  0  0  0  0  0
   -2.3029   -1.0611    0.3055 C   0  0  0  0  0  0  0  0  0  0  0  0
   -3.1314   -2.2010    0.5065 N   0  0  0  0  0  0  0  0  0  0  0  0
   -2.9092    0.1087    1.1572 N   0  0  0  0  0  0  0  0  0  0  0  0
   -2.0069    1.1571    0.8910 C   0  0  0  0  0  0  0  0  0  0  0  0
   -2.5168    2.3797    1.5804 N   0  0  0  0  0  0  0  0  0  0  0  0
   -0.9469    1.2658    0.2157 C   0  0  0  0  0  0  0  0  0  0  0  0
   -0.2875    2.5300   -0.0742 C   0  0  0  0  0  0  0  0  0  0  0  0
    0.2323    3.5478   -0.2887 N   0  0  0  0  0  0  0  0  0  0  0  0
   -0.3852    0.0857   -0.5498 C   0  0  0  0  0  0  0  0  0  0  0  0
    0.9390    0.0132   -0.9083 C   0  0  0  0  0  0  0  0  0  0  0  0
    1.5439   -0.7924   -1.9184 C   0  0  0  0  0  0  0  0  0  0  0  0
    2.8611   -0.9381   -2.1264 C   0  0  0  0  0  0  0  0  0  0  0  0
    3.7621   -0.2494   -1.3269 C   0  0  0  0  0  0  0  0  0  0  0  0
    3.2392    0.5887   -0.3322 C   0  0  0  0  0  0  0  0  0  0  0  0
    1.9402    0.7245   -0.1158 C   0  0  0  0  0  0  0  0  0  0  0  0
   -3.5493   -2.5965   -0.4296 H   0  0  0  0  0  0  0  0  0  0  0  0
   -3.3659   -2.5955    1.3686 H   0  0  0  0  0  0  0  0  0  0  0  0
   -1.9642    2.7006    2.4517 H   0  0  0  0  0  0  0  0  0  0  0  0
   -3.2718    2.9285    1.2480 H   0  0  0  0  0  0  0  0  0  0  0  0
    0.8517   -1.3582   -2.5506 H   0  0  0  0  0  0  0  0  0  0  0  0
    3.2786   -1.6494   -2.8527 H   0  0  0  0  0  0  0  0  0  0  0  0
    4.7905   -0.3989   -1.4572 H   0  0  0  0  0  0  0  0  0  0  0  0
    3.9948    1.1219    0.2976 H   0  0  0  0  0  0  0  0  0  0  0  0
    1.5338    1.3236    0.7140 H   0  0  0  0  0  0  0  0  0  0  0  0
  1  2  3  0
  2  3  1  0
  3  4  2  0
  4  5  1  0
  4  6  1  0
  6  7  2  0
  7  8  1  0
  7  9  1  0
  9 10  1  0
 10 11  3  0
  9 12  2  0
 12 13  1  0
 13 14  2  0
 14 15  1  0
 15 16  2  0
 16 17  1  0
 17 18  2  0
 12  3  1  0
 18 13  1  0
  5 19  1  0
  5 20  1  0
  8 21  1  0
  8 22  1  0
 14 23  1  0
 15 24  1  0
 16 25  1  0
 17 26  1  0
 18 27  1  0
M  END
