
     RDKit          3D

 61 67  0  0  0  0  0  0  0  0999 V2000
   -1.4323   -3.5606   -2.2923 C   0  0  0  0  0  0  0  0  0  0  0  0
   -0.9196   -2.4746   -1.3199 C   0  0  0  0  0  0  0  0  0  0  0  0
   -1.7892   -2.5851   -0.1065 C   0  0  0  0  0  0  0  0  0  0  0  0
   -1.5516   -1.5985    0.9947 C   0  0  0  0  0  0  0  0  0  0  0  0
   -1.6954   -0.2220    0.6495 N   0  0  0  0  0  0  0  0  0  0  0  0
   -0.7083    0.5905    0.2741 C   0  0  0  0  0  0  0  0  0  0  0  0
    0.7301    0.4201    0.1671 C   0  0  0  0  0  0  0  0  0  0  0  0
    1.4876   -0.6843    0.3288 C   0  0  0  0  0  0  0  0  0  0  0  0
    2.8997   -0.6724    0.2144 C   0  0  0  0  0  0  0  0  0  0  0  0
    3.5711    0.4798   -0.0707 C   0  0  0  0  0  0  0  0  0  0  0  0
    5.0355    0.5219   -0.1945 C   0  0  0  0  0  0  0  0  0  0  0  0
    5.7821    1.6042   -0.4714 N   0  0  0  0  0  0  0  0  0  0  0  0
    7.0667    1.2689   -0.5049 N   0  0  0  0  0  0  0  0  0  0  0  0
    7.1083   -0.0454   -0.2434 C   0  0  0  0  0  0  0  0  0  0  0  0
    8.3469   -0.8587   -0.1770 C   0  0  0  0  0  0  0  0  0  0  0  0
    9.6343   -0.4364   -0.3635 C   0  0  0  0  0  0  0  0  0  0  0  0
   10.6023   -1.3526   -0.2551 C   0  0  0  0  0  0  0  0  0  0  0  0
   10.2277   -2.6384    0.0335 C   0  0  0  0  0  0  0  0  0  0  0  0
    8.5305   -2.5236    0.1440 S   0  0  0  0  0  0  0  0  0  0  0  0
    5.8857   -0.4628   -0.0630 O   0  0  0  0  0  0  0  0  0  0  0  0
    2.8217    1.6169   -0.2401 C   0  0  0  0  0  0  0  0  0  0  0  0
    1.4768    1.5870   -0.1273 C   0  0  0  0  0  0  0  0  0  0  0  0
   -1.3019    1.8080    0.0028 N   0  0  0  0  0  0  0  0  0  0  0  0
   -2.6039    1.7490    0.2045 C   0  0  0  0  0  0  0  0  0  0  0  0
   -3.6147    2.6776    0.0791 C   0  0  0  0  0  0  0  0  0  0  0  0
   -3.2258    3.9496   -0.3477 C   0  0  0  0  0  0  0  0  0  0  0  0
   -4.1816    4.9272   -0.4955 C   0  0  0  0  0  0  0  0  0  0  0  0
   -5.4977    4.6498   -0.2256 C   0  0  0  0  0  0  0  0  0  0  0  0
   -5.8417    3.3595    0.2001 C   0  0  0  0  0  0  0  0  0  0  0  0
   -4.9168    2.3606    0.3586 C   0  0  0  0  0  0  0  0  0  0  0  0
   -5.2207    1.0814    0.7753 C   0  0  0  0  0  0  0  0  0  0  0  0
   -6.5366    0.7824    1.0550 C   0  0  0  0  0  0  0  0  0  0  0  0
   -6.8442   -0.4970    1.4755 C   0  0  0  0  0  0  0  0  0  0  0  0
   -5.8571   -1.4419    1.6091 C   0  0  0  0  0  0  0  0  0  0  0  0
   -4.5284   -1.1550    1.3311 C   0  0  0  0  0  0  0  0  0  0  0  0
   -4.2033    0.1080    0.9127 C   0  0  0  0  0  0  0  0  0  0  0  0
   -2.8989    0.4501    0.6251 C   0  0  0  0  0  0  0  0  0  0  0  0
   -2.2258   -3.1457   -2.9439 H   0  0  0  0  0  0  0  0  0  0  0  0
   -1.8149   -4.4312   -1.7387 H   0  0  0  0  0  0  0  0  0  0  0  0
   -0.6069   -3.9074   -2.9504 H   0  0  0  0  0  0  0  0  0  0  0  0
    0.1475   -2.7360   -1.1613 H   0  0  0  0  0  0  0  0  0  0  0  0
   -1.0076   -1.5200   -1.8570 H   0  0  0  0  0  0  0  0  0  0  0  0
   -2.8353   -2.5868   -0.5036 H   0  0  0  0  0  0  0  0  0  0  0  0
   -1.6283   -3.6037    0.3350 H   0  0  0  0  0  0  0  0  0  0  0  0
   -2.0553   -1.9097    1.9500 H   0  0  0  0  0  0  0  0  0  0  0  0
   -0.4901   -1.7888    1.3527 H   0  0  0  0  0  0  0  0  0  0  0  0
    1.0410   -1.6236    0.5442 H   0  0  0  0  0  0  0  0  0  0  0  0
    3.4232   -1.5864    0.3567 H   0  0  0  0  0  0  0  0  0  0  0  0
    9.8227    0.6367   -0.5945 H   0  0  0  0  0  0  0  0  0  0  0  0
   11.6833   -1.1126   -0.3886 H   0  0  0  0  0  0  0  0  0  0  0  0
   10.8960   -3.5149    0.1574 H   0  0  0  0  0  0  0  0  0  0  0  0
    3.3866    2.5200   -0.4658 H   0  0  0  0  0  0  0  0  0  0  0  0
    0.9346    2.5004   -0.2676 H   0  0  0  0  0  0  0  0  0  0  0  0
   -2.2040    4.1609   -0.5561 H   0  0  0  0  0  0  0  0  0  0  0  0
   -3.9242    5.9275   -0.8242 H   0  0  0  0  0  0  0  0  0  0  0  0
   -6.2983    5.3829   -0.3244 H   0  0  0  0  0  0  0  0  0  0  0  0
   -6.8717    3.1648    0.4048 H   0  0  0  0  0  0  0  0  0  0  0  0
   -7.3595    1.4837    0.9690 H   0  0  0  0  0  0  0  0  0  0  0  0
   -7.8903   -0.7045    1.6890 H   0  0  0  0  0  0  0  0  0  0  0  0
   -6.1199   -2.4426    1.9413 H   0  0  0  0  0  0  0  0  0  0  0  0
   -3.8404   -1.9463    1.4637 H   0  0  0  0  0  0  0  0  0  0  0  0
  1  2  1  0
  2  3  1  0
  3  4  1  0
  4  5  1  0
  5  6  1  0
  6  7  1  0
  7  8  2  0
  8  9  1  0
  9 10  2  0
 10 11  1  0
 11 12  2  0
 12 13  1  0
 13 14  2  0
 14 15  1  0
 15 16  2  0
 16 17  1  0
 17 18  2  0
 18 19  1  0
 14 20  1  0
 10 21  1  0
 21 22  2  0
  6 23  2  0
 23 24  1  0
 24 25  2  0
 25 26  1  0
 26 27  2  0
 27 28  1  0
 28 29  2  0
 29 30  1  0
 30 31  2  0
 31 32  1  0
 32 33  2  0
 33 34  1  0
 34 35  2  0
 35 36  1  0
 36 37  2  0
 37  5  1  0
 22  7  1  0
 37 24  1  0
 20 11  1  0
 30 25  1  0
 36 31  1  0
 19 15  1  0
  1 38  1  0
  1 39  1  0
  1 40  1  0
  2 41  1  0
  2 42  1  0
  3 43  1  0
  3 44  1  0
  4 45  1  0
  4 46  1  0
  8 47  1  0
  9 48  1  0
 16 49  1  0
 17 50  1  0
 18 51  1  0
 21 52  1  0
 22 53  1  0
 26 54  1  0
 27 55  1  0
 28 56  1  0
 29 57  1  0
 32 58  1  0
 33 59  1  0
 34 60  1  0
 35 61  1  0
M  END
