
     RDKit          3D

 74 83  0  0  0  0  0  0  0  0999 V2000
   10.4128   -3.2588    1.1339 C   0  0  0  0  0  0  0  0  0  0  0  0
    9.5462   -3.3470    0.0684 C   0  0  0  0  0  0  0  0  0  0  0  0
    8.7037   -2.2946   -0.2167 C   0  0  0  0  0  0  0  0  0  0  0  0
    8.7151   -1.1466    0.5540 C   0  0  0  0  0  0  0  0  0  0  0  0
    7.8580   -0.0504    0.2799 N   0  0  0  0  0  0  0  0  0  0  0  0
    8.2734    1.2230    0.1657 C   0  0  0  0  0  0  0  0  0  0  0  0
    9.4863    1.8809    0.2527 C   0  0  0  0  0  0  0  0  0  0  0  0
    9.6013    3.2417    0.0828 C   0  0  0  0  0  0  0  0  0  0  0  0
    8.4668    3.9734   -0.1834 C   0  0  0  0  0  0  0  0  0  0  0  0
    7.2282    3.3713   -0.2819 C   0  0  0  0  0  0  0  0  0  0  0  0
    7.1624    2.0077   -0.1044 C   0  0  0  0  0  0  0  0  0  0  0  0
    6.0777    1.1655   -0.1472 C   0  0  0  0  0  0  0  0  0  0  0  0
    4.7441    1.4173   -0.3766 C   0  0  0  0  0  0  0  0  0  0  0  0
    3.7864    0.4029   -0.3771 C   0  0  0  0  0  0  0  0  0  0  0  0
    2.3969    0.6763   -0.6204 C   0  0  0  0  0  0  0  0  0  0  0  0
    2.0622    1.7264   -1.4783 C   0  0  0  0  0  0  0  0  0  0  0  0
    0.7315    1.9969   -1.7186 C   0  0  0  0  0  0  0  0  0  0  0  0
   -0.2642    1.2864   -1.1571 N   0  0  0  0  0  0  0  0  0  0  0  0
   -1.5934    1.3371   -1.2191 N   0  0  0  0  0  0  0  0  0  0  0  0
   -2.1576    0.3998   -0.4667 C   0  0  0  0  0  0  0  0  0  0  0  0
   -3.6018    0.1638   -0.2998 C   0  0  0  0  0  0  0  0  0  0  0  0
   -4.0795   -0.8311    0.5119 C   0  0  0  0  0  0  0  0  0  0  0  0
   -5.4568   -1.0175    0.6370 C   0  0  0  0  0  0  0  0  0  0  0  0
   -6.3503   -0.2137   -0.0455 C   0  0  0  0  0  0  0  0  0  0  0  0
   -7.7681   -0.4011    0.0795 N   0  0  0  0  0  0  0  0  0  0  0  0
   -8.7212    0.5122    0.3369 C   0  0  0  0  0  0  0  0  0  0  0  0
   -8.6495    1.8790    0.5577 C   0  0  0  0  0  0  0  0  0  0  0  0
   -9.7476    2.6658    0.8102 C   0  0  0  0  0  0  0  0  0  0  0  0
  -10.9876    2.0611    0.8454 C   0  0  0  0  0  0  0  0  0  0  0  0
  -11.1031    0.7044    0.6311 C   0  0  0  0  0  0  0  0  0  0  0  0
   -9.9659   -0.0630    0.3776 C   0  0  0  0  0  0  0  0  0  0  0  0
   -9.7854   -1.3933    0.1357 C   0  0  0  0  0  0  0  0  0  0  0  0
  -10.6876   -2.4410    0.0604 C   0  0  0  0  0  0  0  0  0  0  0  0
  -10.2297   -3.7151   -0.2023 C   0  0  0  0  0  0  0  0  0  0  0  0
   -8.8712   -3.9123   -0.3846 C   0  0  0  0  0  0  0  0  0  0  0  0
   -7.9777   -2.8668   -0.3087 C   0  0  0  0  0  0  0  0  0  0  0  0
   -8.4310   -1.5796   -0.0444 C   0  0  0  0  0  0  0  0  0  0  0  0
   -5.8702    0.7870   -0.8621 C   0  0  0  0  0  0  0  0  0  0  0  0
   -4.5016    0.9583   -0.9748 C   0  0  0  0  0  0  0  0  0  0  0  0
   -1.1511   -0.2851    0.1054 N   0  0  0  0  0  0  0  0  0  0  0  0
    0.0172    0.2714   -0.3285 C   0  0  0  0  0  0  0  0  0  0  0  0
    1.3404   -0.0139   -0.0764 C   0  0  0  0  0  0  0  0  0  0  0  0
    4.2587   -0.8726   -0.1326 C   0  0  0  0  0  0  0  0  0  0  0  0
    5.5990   -1.1434    0.1004 C   0  0  0  0  0  0  0  0  0  0  0  0
    6.5076   -0.1045    0.0902 C   0  0  0  0  0  0  0  0  0  0  0  0
    9.5984   -1.1029    1.6097 C   0  0  0  0  0  0  0  0  0  0  0  0
   10.4505   -2.1270    1.9246 C   0  0  0  0  0  0  0  0  0  0  0  0
   11.0801   -4.0750    1.3709 H   0  0  0  0  0  0  0  0  0  0  0  0
    9.5543   -4.2521   -0.5195 H   0  0  0  0  0  0  0  0  0  0  0  0
    8.0367   -2.3977   -1.0599 H   0  0  0  0  0  0  0  0  0  0  0  0
   10.3713    1.3011    0.4617 H   0  0  0  0  0  0  0  0  0  0  0  0
   10.5375    3.7720    0.1470 H   0  0  0  0  0  0  0  0  0  0  0  0
    8.5061    5.0649   -0.3274 H   0  0  0  0  0  0  0  0  0  0  0  0
    6.3631    3.9851   -0.4926 H   0  0  0  0  0  0  0  0  0  0  0  0
    4.3903    2.4261   -0.5670 H   0  0  0  0  0  0  0  0  0  0  0  0
    2.8659    2.3042   -1.9347 H   0  0  0  0  0  0  0  0  0  0  0  0
    0.5059    2.8161   -2.3872 H   0  0  0  0  0  0  0  0  0  0  0  0
   -3.3880   -1.4552    1.0416 H   0  0  0  0  0  0  0  0  0  0  0  0
   -5.7895   -1.8020    1.2783 H   0  0  0  0  0  0  0  0  0  0  0  0
   -7.6605    2.3394    0.5269 H   0  0  0  0  0  0  0  0  0  0  0  0
   -9.6792    3.7378    0.9820 H   0  0  0  0  0  0  0  0  0  0  0  0
  -11.8456    2.6923    1.0453 H   0  0  0  0  0  0  0  0  0  0  0  0
  -12.0690    0.2404    0.6597 H   0  0  0  0  0  0  0  0  0  0  0  0
  -11.7490   -2.2999    0.2009 H   0  0  0  0  0  0  0  0  0  0  0  0
  -10.8794   -4.5740   -0.2737 H   0  0  0  0  0  0  0  0  0  0  0  0
   -8.4739   -4.9133   -0.5950 H   0  0  0  0  0  0  0  0  0  0  0  0
   -6.9056   -3.0393   -0.4555 H   0  0  0  0  0  0  0  0  0  0  0  0
   -6.5740    1.4110   -1.3936 H   0  0  0  0  0  0  0  0  0  0  0  0
   -4.1314    1.7337   -1.6074 H   0  0  0  0  0  0  0  0  0  0  0  0
    1.5547   -0.8329    0.5919 H   0  0  0  0  0  0  0  0  0  0  0  0
    3.5904   -1.7234   -0.1132 H   0  0  0  0  0  0  0  0  0  0  0  0
    5.9738   -2.1337    0.2912 H   0  0  0  0  0  0  0  0  0  0  0  0
    9.6170   -0.2071    2.2222 H   0  0  0  0  0  0  0  0  0  0  0  0
   11.1254   -2.0466    2.7618 H   0  0  0  0  0  0  0  0  0  0  0  0
  1  2  2  0
  2  3  1  0
  3  4  2  0
  4  5  1  0
  5  6  1  0
  6  7  2  0
  7  8  1  0
  8  9  2  0
  9 10  1  0
 10 11  2  0
 11 12  1  0
 12 13  2  0
 13 14  1  0
 14 15  1  0
 15 16  1  0
 16 17  2  0
 17 18  1  0
 18 19  1  0
 19 20  2  0
 20 21  1  0
 21 22  2  0
 22 23  1  0
 23 24  2  0
 24 25  1  0
 25 26  1  0
 26 27  2  0
 27 28  1  0
 28 29  2  0
 29 30  1  0
 30 31  2  0
 31 32  1  0
 32 33  2  0
 33 34  1  0
 34 35  2  0
 35 36  1  0
 36 37  2  0
 24 38  1  0
 38 39  2  0
 20 40  1  0
 40 41  2  0
 41 42  1  0
 14 43  2  0
 43 44  1  0
 44 45  2  0
  4 46  1  0
 46 47  2  0
 47  1  1  0
 45  5  1  0
 11  6  1  0
 45 12  1  0
 42 15  2  0
 41 18  1  0
 39 21  1  0
 37 25  1  0
 31 26  1  0
 37 32  1  0
  1 48  1  0
  2 49  1  0
  3 50  1  0
  7 51  1  0
  8 52  1  0
  9 53  1  0
 10 54  1  0
 13 55  1  0
 16 56  1  0
 17 57  1  0
 22 58  1  0
 23 59  1  0
 27 60  1  0
 28 61  1  0
 29 62  1  0
 30 63  1  0
 33 64  1  0
 34 65  1  0
 35 66  1  0
 36 67  1  0
 38 68  1  0
 39 69  1  0
 42 70  1  0
 43 71  1  0
 44 72  1  0
 46 73  1  0
 47 74  1  0
M  END
