
     RDKit          3D

 63 71  0  0  0  0  0  0  0  0999 V2000
    0.3127   -1.6133    1.7318 F   0  0  0  0  0  0  0  0  0  0  0  0
    0.1485   -1.2677    0.3443 B   0  0  0  0  0  4  0  0  0  0  0  0
    0.0692   -2.2858   -0.6543 F   0  0  0  0  0  0  0  0  0  0  0  0
    1.3280   -0.3222    0.0782 N   0  0  0  0  0  0  0  0  0  0  0  0
    1.1391    0.9721   -0.2258 C   0  0  0  0  0  0  0  0  0  0  0  0
    2.3287    1.6056   -0.4123 C   0  0  0  0  0  0  0  0  0  0  0  0
    2.6239    2.9795   -0.8364 C   0  0  0  0  0  0  0  0  0  0  0  0
    1.8886    3.9494   -1.4407 C   0  0  0  0  0  0  0  0  0  0  0  0
    2.5086    5.1196   -1.7479 C   0  0  0  0  0  0  0  0  0  0  0  0
    3.8342    5.2311   -1.4232 C   0  0  0  0  0  0  0  0  0  0  0  0
    4.1695    3.7289   -0.7137 S   0  0  0  0  0  0  0  0  0  0  0  0
    3.3123    0.6462   -0.2081 C   0  0  0  0  0  0  0  0  0  0  0  0
    2.6549   -0.5248    0.0891 C   0  0  0  0  0  0  0  0  0  0  0  0
    3.5661   -1.6808    0.3125 C   0  0  0  0  0  0  0  0  0  0  0  0
    3.0029   -2.8927    0.6152 C   0  0  0  0  0  0  0  0  0  0  0  0
    3.8266   -4.0109    0.8330 C   0  0  0  0  0  0  0  0  0  0  0  0
    5.1811   -3.8889    0.7433 C   0  0  0  0  0  0  0  0  0  0  0  0
    5.7281   -2.6751    0.4407 C   0  0  0  0  0  0  0  0  0  0  0  0
    4.9379   -1.5282    0.2147 C   0  0  0  0  0  0  0  0  0  0  0  0
    5.6522   -0.2722   -0.1144 C   0  0  0  0  0  0  0  0  0  0  0  0
    4.7626    0.8493   -0.2835 C   0  0  0  0  0  0  0  0  0  0  0  0
   -0.2273    1.5376   -0.2977 C   0  0  0  0  0  0  0  0  0  0  0  0
   -1.3019    0.8159   -0.0741 C   0  0  0  0  0  0  0  0  0  0  0  0
   -2.6739    1.2065   -0.1083 C   0  0  0  0  0  0  0  0  0  0  0  0
   -3.3227    2.5008   -0.3943 C   0  0  0  0  0  0  0  0  0  0  0  0
   -2.9980    3.4371   -1.3322 C   0  0  0  0  0  0  0  0  0  0  0  0
   -3.7440    4.5446   -1.3942 C   0  0  0  0  0  0  0  0  0  0  0  0
   -4.7813    4.6580   -0.5098 C   0  0  0  0  0  0  0  0  0  0  0  0
   -4.6829    3.2093    0.3839 S   0  0  0  0  0  0  0  0  0  0  0  0
   -3.3817    0.1145    0.1959 C   0  0  0  0  0  0  0  0  0  0  0  0
   -4.8393   -0.0447    0.3103 C   0  0  0  0  0  0  0  0  0  0  0  0
   -5.3624   -1.4048    0.2806 C   0  0  0  0  0  0  0  0  0  0  0  0
   -4.4346   -2.4337    0.7741 C   0  0  0  0  0  0  0  0  0  0  0  0
   -5.0015   -3.6635    1.1964 C   0  0  0  0  0  0  0  0  0  0  0  0
   -4.1850   -4.6976    1.5609 C   0  0  0  0  0  0  0  0  0  0  0  0
   -2.8279   -4.5281    1.5116 C   0  0  0  0  0  0  0  0  0  0  0  0
   -2.2466   -3.3171    1.0981 C   0  0  0  0  0  0  0  0  0  0  0  0
   -3.0527   -2.2687    0.7311 C   0  0  0  0  0  0  0  0  0  0  0  0
   -2.4518   -0.9529    0.4204 C   0  0  0  0  0  0  0  0  0  0  0  0
   -1.2214   -0.5629    0.2685 N   0  0  0  0  0  4  0  0  0  0  0  0
    0.8054    3.8168   -1.7192 H   0  0  0  0  0  0  0  0  0  0  0  0
    1.9418    5.9534   -2.2496 H   0  0  0  0  0  0  0  0  0  0  0  0
    4.4941    6.1018   -1.5974 H   0  0  0  0  0  0  0  0  0  0  0  0
    1.9652   -3.0039    0.6836 H   0  0  0  0  0  0  0  0  0  0  0  0
    3.3114   -4.9338    1.0669 H   0  0  0  0  0  0  0  0  0  0  0  0
    5.7880   -4.7750    0.9185 H   0  0  0  0  0  0  0  0  0  0  0  0
    6.8109   -2.5659    0.3669 H   0  0  0  0  0  0  0  0  0  0  0  0
    6.2312   -0.4537   -1.0734 H   0  0  0  0  0  0  0  0  0  0  0  0
    6.3880   -0.0787    0.7119 H   0  0  0  0  0  0  0  0  0  0  0  0
    4.9926    1.3534   -1.2819 H   0  0  0  0  0  0  0  0  0  0  0  0
    5.0902    1.6730    0.4433 H   0  0  0  0  0  0  0  0  0  0  0  0
   -0.4046    2.5800   -0.5136 H   0  0  0  0  0  0  0  0  0  0  0  0
   -2.1362    3.2624   -2.0142 H   0  0  0  0  0  0  0  0  0  0  0  0
   -3.5695    5.3759   -2.1208 H   0  0  0  0  0  0  0  0  0  0  0  0
   -5.4928    5.5016   -0.4246 H   0  0  0  0  0  0  0  0  0  0  0  0
   -5.3379    0.6320   -0.4578 H   0  0  0  0  0  0  0  0  0  0  0  0
   -5.1182    0.4577    1.2925 H   0  0  0  0  0  0  0  0  0  0  0  0
   -5.5526   -1.6898   -0.8050 H   0  0  0  0  0  0  0  0  0  0  0  0
   -6.3524   -1.4952    0.8284 H   0  0  0  0  0  0  0  0  0  0  0  0
   -6.0786   -3.7521    1.2187 H   0  0  0  0  0  0  0  0  0  0  0  0
   -4.6420   -5.6420    1.8845 H   0  0  0  0  0  0  0  0  0  0  0  0
   -2.1643   -5.3137    1.7870 H   0  0  0  0  0  0  0  0  0  0  0  0
   -1.2081   -3.2736    1.0918 H   0  0  0  0  0  0  0  0  0  0  0  0
  1  2  1  0
  2  3  1  0
  2  4  1  0
  4  5  1  0
  5  6  2  0
  6  7  1  0
  7  8  2  0
  8  9  1  0
  9 10  2  0
 10 11  1  0
  6 12  1  0
 12 13  2  0
 13 14  1  0
 14 15  2  0
 15 16  1  0
 16 17  2  0
 17 18  1  0
 18 19  2  0
 19 20  1  0
 20 21  1  0
  5 22  1  0
 22 23  2  0
 23 24  1  0
 24 25  1  0
 25 26  2  0
 26 27  1  0
 27 28  2  0
 28 29  1  0
 24 30  2  0
 30 31  1  0
 31 32  1  0
 32 33  1  0
 33 34  2  0
 34 35  1  0
 35 36  2  0
 36 37  1  0
 37 38  2  0
 38 39  1  0
 39 40  2  0
 40  2  1  0
 13  4  1  0
 19 14  1  0
 40 23  1  0
 11  7  1  0
 21 12  1  0
 29 25  1  0
 39 30  1  0
 38 33  1  0
  8 41  1  0
  9 42  1  0
 10 43  1  0
 15 44  1  0
 16 45  1  0
 17 46  1  0
 18 47  1  0
 20 48  1  0
 20 49  1  0
 21 50  1  0
 21 51  1  0
 22 52  1  0
 26 53  1  0
 27 54  1  0
 28 55  1  0
 31 56  1  0
 31 57  1  0
 32 58  1  0
 32 59  1  0
 34 60  1  0
 35 61  1  0
 36 62  1  0
 37 63  1  0
M  CHG  2   2  -1  40   1
M  END
