
     RDKit          3D

 25 26  0  0  0  0  0  0  0  0999 V2000
    2.9130   -0.5027    0.8287 N   0  0  0  0  0  0  0  0  0  0  0  0
    2.5822   -0.8528   -0.4911 C   0  0  0  0  0  0  0  0  0  0  0  0
    2.9656   -1.9418   -0.9671 O   0  0  0  0  0  0  0  0  0  0  0  0
    1.7539    0.0462   -1.3386 C   0  0  0  0  0  0  0  0  0  0  0  0
    0.6276    0.5993   -0.5792 C   0  0  0  0  0  0  0  0  0  0  0  0
    0.7608    1.8903   -0.0514 C   0  0  0  0  0  0  0  0  0  0  0  0
   -0.2049    2.4647    0.7130 C   0  0  0  0  0  0  0  0  0  0  0  0
   -1.3815    1.7973    1.0167 C   0  0  0  0  0  0  0  0  0  0  0  0
   -1.5063    0.5098    0.4913 C   0  0  0  0  0  0  0  0  0  0  0  0
   -2.6813   -0.1926    0.7791 C   0  0  0  0  0  0  0  0  0  0  0  0
   -2.8943   -1.4930    0.3000 C   0  0  0  0  0  0  0  0  0  0  0  0
   -1.8780   -2.0189   -0.4642 C   0  0  0  0  0  0  0  0  0  0  0  0
   -0.7074   -1.3516   -0.7756 C   0  0  0  0  0  0  0  0  0  0  0  0
   -0.5267   -0.0726   -0.2905 C   0  0  0  0  0  0  0  0  0  0  0  0
    3.5517    0.2812    1.0412 H   0  0  0  0  0  0  0  0  0  0  0  0
    2.5081   -1.0610    1.5988 H   0  0  0  0  0  0  0  0  0  0  0  0
    1.4560   -0.5100   -2.2611 H   0  0  0  0  0  0  0  0  0  0  0  0
    2.4201    0.8433   -1.6899 H   0  0  0  0  0  0  0  0  0  0  0  0
    1.6705    2.4150   -0.2728 H   0  0  0  0  0  0  0  0  0  0  0  0
   -0.0740    3.4815    1.1144 H   0  0  0  0  0  0  0  0  0  0  0  0
   -2.1616    2.2394    1.6031 H   0  0  0  0  0  0  0  0  0  0  0  0
   -3.4175    0.2714    1.3861 H   0  0  0  0  0  0  0  0  0  0  0  0
   -3.8059   -2.0184    0.5426 H   0  0  0  0  0  0  0  0  0  0  0  0
   -2.0123   -3.0255   -0.8537 H   0  0  0  0  0  0  0  0  0  0  0  0
    0.0424   -1.7985   -1.3799 H   0  0  0  0  0  0  0  0  0  0  0  0
  1  2  1  0
  2  3  2  0
  2  4  1  0
  4  5  1  0
  5  6  2  0
  6  7  1  0
  7  8  2  0
  8  9  1  0
  9 10  2  0
 10 11  1  0
 11 12  2  0
 12 13  1  0
 13 14  2  0
 14  5  1  0
 14  9  1  0
  1 15  1  0
  1 16  1  0
  4 17  1  0
  4 18  1  0
  6 19  1  0
  7 20  1  0
  8 21  1  0
 10 22  1  0
 11 23  1  0
 12 24  1  0
 13 25  1  0
M  END
