
     RDKit          3D

 38 40  0  0  0  0  0  0  0  0999 V2000
   -6.7424   -0.0168   -4.0537 C   0  0  0  0  0  0  0  0  0  0  0  0
   -5.5469    0.0127   -3.2103 C   0  0  0  0  0  0  0  0  0  0  0  0
   -4.2886    0.1929   -3.7005 C   0  0  0  0  0  0  0  0  0  0  0  0
   -3.1991    0.2007   -2.8722 C   0  0  0  0  0  0  0  0  0  0  0  0
   -3.3118    0.0261   -1.4941 C   0  0  0  0  0  0  0  0  0  0  0  0
   -2.1280    0.0456   -0.6442 C   0  0  0  0  0  0  0  0  0  0  0  0
   -2.1103   -0.1583    0.6808 C   0  0  0  0  0  0  0  0  0  0  0  0
   -0.9582   -0.2052    1.4538 C   0  0  0  0  0  0  0  0  0  0  0  0
    0.2573   -0.0228    0.7697 C   0  0  0  0  0  0  0  0  0  0  0  0
    1.5027   -0.0689    1.5626 C   0  0  0  0  0  0  0  0  0  0  0  0
    2.6676    0.0938    1.0353 C   0  0  0  0  0  0  0  0  0  0  0  0
    3.9322    0.0561    1.7860 C   0  0  0  0  0  0  0  0  0  0  0  0
    5.1558    0.2039    1.1292 C   0  0  0  0  0  0  0  0  0  0  0  0
    6.3455    0.1569    1.8403 C   0  0  0  0  0  0  0  0  0  0  0  0
    6.3363   -0.0357    3.1978 C   0  0  0  0  0  0  0  0  0  0  0  0
    7.5792   -0.1077    3.9226 C   0  0  0  0  0  0  0  0  0  0  0  0
    8.5934   -0.1475    4.5217 N   0  0  0  0  0  0  0  0  0  0  0  0
    5.1402   -0.1818    3.8622 C   0  0  0  0  0  0  0  0  0  0  0  0
    3.9558   -0.1330    3.1441 C   0  0  0  0  0  0  0  0  0  0  0  0
    0.2062    0.1814   -0.5590 C   0  0  0  0  0  0  0  0  0  0  0  0
   -0.9400    0.2255   -1.3206 N   0  0  0  0  0  0  0  0  0  0  0  0
   -4.5548   -0.1465   -1.0403 N   0  0  0  0  0  0  0  0  0  0  0  0
   -5.6462   -0.1602   -1.8202 C   0  0  0  0  0  0  0  0  0  0  0  0
   -6.5811    0.5535   -4.9968 H   0  0  0  0  0  0  0  0  0  0  0  0
   -7.5997    0.3854   -3.4812 H   0  0  0  0  0  0  0  0  0  0  0  0
   -6.9243   -1.0888   -4.3134 H   0  0  0  0  0  0  0  0  0  0  0  0
   -4.1525    0.3296   -4.7847 H   0  0  0  0  0  0  0  0  0  0  0  0
   -2.2243    0.3465   -3.3066 H   0  0  0  0  0  0  0  0  0  0  0  0
   -3.0488   -0.2966    1.2005 H   0  0  0  0  0  0  0  0  0  0  0  0
   -0.9484   -0.3575    2.5187 H   0  0  0  0  0  0  0  0  0  0  0  0
    1.3972   -0.2500    2.6185 H   0  0  0  0  0  0  0  0  0  0  0  0
    2.7758    0.2747   -0.0506 H   0  0  0  0  0  0  0  0  0  0  0  0
    5.1322    0.3535    0.0657 H   0  0  0  0  0  0  0  0  0  0  0  0
    7.2958    0.2701    1.3336 H   0  0  0  0  0  0  0  0  0  0  0  0
    5.0980   -0.3251    4.9281 H   0  0  0  0  0  0  0  0  0  0  0  0
    3.0490   -0.2409    3.7196 H   0  0  0  0  0  0  0  0  0  0  0  0
    1.1520    0.3406   -1.1211 H   0  0  0  0  0  0  0  0  0  0  0  0
   -6.6669   -0.3060   -1.4524 H   0  0  0  0  0  0  0  0  0  0  0  0
  1  2  1  0
  2  3  2  0
  3  4  1  0
  4  5  2  0
  5  6  1  0
  6  7  2  0
  7  8  1  0
  8  9  2  0
  9 10  1  0
 10 11  2  0
 11 12  1  0
 12 13  2  0
 13 14  1  0
 14 15  2  0
 15 16  1  0
 16 17  3  0
 15 18  1  0
 18 19  2  0
  9 20  1  0
 20 21  2  0
  5 22  1  0
 22 23  2  0
 23  2  1  0
 21  6  1  0
 19 12  1  0
  1 24  1  0
  1 25  1  0
  1 26  1  0
  3 27  1  0
  4 28  1  0
  7 29  1  0
  8 30  1  0
 10 31  1  0
 11 32  1  0
 13 33  1  0
 14 34  1  0
 18 35  1  0
 19 36  1  0
 20 37  1  0
 23 38  1  0
M  END
