
     RDKit          3D

 17 18  0  0  0  0  0  0  0  0999 V2000
    4.6835   -0.4983    0.5238 N   0  0  0  0  0  0  0  0  0  0  0  0
    3.5376   -0.3839    0.3862 C   0  0  0  0  0  0  0  0  0  0  0  0
    2.1112   -0.2343    0.2287 C   0  0  0  0  0  0  0  0  0  0  0  0
    1.3477    0.9145    0.4703 C   0  0  0  0  0  0  0  0  0  0  0  0
    0.0372    0.6654    0.2077 C   0  0  0  0  0  0  0  0  0  0  0  0
   -1.0993    1.4349    0.2805 C   0  0  0  0  0  0  0  0  0  0  0  0
   -2.3492    0.8938   -0.0626 C   0  0  0  0  0  0  0  0  0  0  0  0
   -2.4187   -0.4206   -0.4733 C   0  0  0  0  0  0  0  0  0  0  0  0
   -1.2554   -1.1668   -0.5352 C   0  0  0  0  0  0  0  0  0  0  0  0
   -0.0265   -0.6494   -0.2023 C   0  0  0  0  0  0  0  0  0  0  0  0
    1.2168   -1.1610   -0.1813 N   0  0  0  0  0  0  0  0  0  0  0  0
    1.8076    1.8252    0.8135 H   0  0  0  0  0  0  0  0  0  0  0  0
   -1.0518    2.4653    0.6015 H   0  0  0  0  0  0  0  0  0  0  0  0
   -3.2514    1.4946   -0.0079 H   0  0  0  0  0  0  0  0  0  0  0  0
   -3.3901   -0.8331   -0.7375 H   0  0  0  0  0  0  0  0  0  0  0  0
   -1.3338   -2.1923   -0.8591 H   0  0  0  0  0  0  0  0  0  0  0  0
    1.4344   -2.1538   -0.4531 H   0  0  0  0  0  0  0  0  0  0  0  0
  1  2  3  0
  2  3  1  0
  3  4  2  0
  4  5  1  0
  5  6  2  0
  6  7  1  0
  7  8  2  0
  8  9  1  0
  9 10  2  0
 10 11  1  0
 11  3  1  0
 10  5  1  0
  4 12  1  0
  6 13  1  0
  7 14  1  0
  8 15  1  0
  9 16  1  0
 11 17  1  0
M  END
