
     RDKit          3D

 49 52  0  0  0  0  0  0  0  0999 V2000
    4.4389   -7.4372   -1.3377 O   0  0  0  0  0  0  0  0  0  0  0  0
    4.9688   -6.3156   -1.2016 N   0  0  0  0  0  4  0  0  0  0  0  0
    6.3307   -6.2334   -1.2391 O   0  0  0  0  0  1  0  0  0  0  0  0
    4.1788   -5.1514   -1.0124 C   0  0  0  0  0  0  0  0  0  0  0  0
    4.7596   -3.9268   -0.8639 C   0  0  0  0  0  0  0  0  0  0  0  0
    3.9361   -2.8385   -0.6840 C   0  0  0  0  0  0  0  0  0  0  0  0
    2.5614   -2.9167   -0.6455 C   0  0  0  0  0  0  0  0  0  0  0  0
    1.7162   -1.7399   -0.4525 C   0  0  0  0  0  0  0  0  0  0  0  0
    2.0964   -0.4952   -0.2946 N   0  0  0  0  0  0  0  0  0  0  0  0
    1.0121    0.3509   -0.1403 C   0  0  0  0  0  0  0  0  0  0  0  0
    1.1944    1.7665    0.0615 C   0  0  0  0  0  0  0  0  0  0  0  0
    0.3280    2.7351    0.0513 C   0  0  0  0  0  0  0  0  0  0  0  0
    0.6680    4.1629    0.2829 C   0  0  0  0  0  0  0  0  0  0  0  0
    1.9181    4.6286    0.5326 C   0  0  0  0  0  0  0  0  0  0  0  0
    2.1437    5.9702    0.7357 C   0  0  0  0  0  0  0  0  0  0  0  0
    1.1436    6.8983    0.6993 C   0  0  0  0  0  0  0  0  0  0  0  0
    1.4693    8.6010    0.9630 Cl  0  0  0  0  0  0  0  0  0  0  0  0
   -0.1339    6.4314    0.4453 C   0  0  0  0  0  0  0  0  0  0  0  0
   -0.3774    5.0965    0.2404 C   0  0  0  0  0  0  0  0  0  0  0  0
   -0.0609   -0.4545   -0.2106 C   0  0  0  0  0  0  0  0  0  0  0  0
   -1.4539   -0.0905   -0.0367 C   0  0  0  0  0  0  0  0  0  0  0  0
   -2.3814   -0.9957   -0.2434 C   0  0  0  0  0  0  0  0  0  0  0  0
   -3.7890   -0.6523   -0.0746 C   0  0  0  0  0  0  0  0  0  0  0  0
   -4.2660    0.5681    0.2933 C   0  0  0  0  0  0  0  0  0  0  0  0
   -5.6118    0.8656    0.4453 C   0  0  0  0  0  0  0  0  0  0  0  0
   -6.5296   -0.1344    0.2101 C   0  0  0  0  0  0  0  0  0  0  0  0
   -8.2475    0.1866    0.3876 Cl  0  0  0  0  0  0  0  0  0  0  0  0
   -6.1101   -1.3951   -0.1663 C   0  0  0  0  0  0  0  0  0  0  0  0
   -4.7661   -1.6325   -0.3012 C   0  0  0  0  0  0  0  0  0  0  0  0
    0.3834   -1.7451   -0.4055 N   0  0  0  0  0  0  0  0  0  0  0  0
    1.9933   -4.1565   -0.7965 C   0  0  0  0  0  0  0  0  0  0  0  0
    2.7930   -5.2646   -0.9783 C   0  0  0  0  0  0  0  0  0  0  0  0
    5.8335   -3.8696   -0.8945 H   0  0  0  0  0  0  0  0  0  0  0  0
    4.3786   -1.8606   -0.5647 H   0  0  0  0  0  0  0  0  0  0  0  0
    2.2389    2.1281    0.2704 H   0  0  0  0  0  0  0  0  0  0  0  0
   -0.6842    2.5088   -0.1648 H   0  0  0  0  0  0  0  0  0  0  0  0
    2.7507    3.9642    0.5765 H   0  0  0  0  0  0  0  0  0  0  0  0
    3.1541    6.3597    0.9391 H   0  0  0  0  0  0  0  0  0  0  0  0
   -0.9237    7.1752    0.4179 H   0  0  0  0  0  0  0  0  0  0  0  0
   -1.3893    4.7706    0.0447 H   0  0  0  0  0  0  0  0  0  0  0  0
   -1.7534    0.8528    0.2735 H   0  0  0  0  0  0  0  0  0  0  0  0
   -2.1472   -2.0195   -0.5453 H   0  0  0  0  0  0  0  0  0  0  0  0
   -3.5917    1.3766    0.4865 H   0  0  0  0  0  0  0  0  0  0  0  0
   -5.9314    1.8550    0.7402 H   0  0  0  0  0  0  0  0  0  0  0  0
   -6.8357   -2.1723   -0.3485 H   0  0  0  0  0  0  0  0  0  0  0  0
   -4.4299   -2.6284   -0.5988 H   0  0  0  0  0  0  0  0  0  0  0  0
   -0.2569   -2.5748   -0.4965 H   0  0  0  0  0  0  0  0  0  0  0  0
    0.9219   -4.2887   -0.7763 H   0  0  0  0  0  0  0  0  0  0  0  0
    2.3595   -6.2626   -1.1007 H   0  0  0  0  0  0  0  0  0  0  0  0
  1  2  2  0
  2  3  1  0
  2  4  1  0
  4  5  2  0
  5  6  1  0
  6  7  2  0
  7  8  1  0
  8  9  2  0
  9 10  1  0
 10 11  1  0
 11 12  2  0
 12 13  1  0
 13 14  2  0
 14 15  1  0
 15 16  2  0
 16 17  1  0
 16 18  1  0
 18 19  2  0
 10 20  2  0
 20 21  1  0
 21 22  2  0
 22 23  1  0
 23 24  2  0
 24 25  1  0
 25 26  2  0
 26 27  1  0
 26 28  1  0
 28 29  2  0
 20 30  1  0
  7 31  1  0
 31 32  2  0
 32  4  1  0
 30  8  1  0
 19 13  1  0
 29 23  1  0
  5 33  1  0
  6 34  1  0
 11 35  1  0
 12 36  1  0
 14 37  1  0
 15 38  1  0
 18 39  1  0
 19 40  1  0
 21 41  1  0
 22 42  1  0
 24 43  1  0
 25 44  1  0
 28 45  1  0
 29 46  1  0
 30 47  1  0
 31 48  1  0
 32 49  1  0
M  CHG  2   2   1   3  -1
M  END
