
     RDKit          3D

 30 30  0  0  0  0  0  0  0  0999 V2000
    3.1585    1.9575   -1.1669 C   0  0  0  0  0  0  0  0  0  0  0  0
    2.0460    1.2063   -1.7855 N   0  0  0  0  0  0  0  0  0  0  0  0
    2.0731    1.0865   -3.2088 C   0  0  0  0  0  0  0  0  0  0  0  0
    1.0543    0.6418   -0.9476 C   0  0  0  0  0  0  0  0  0  0  0  0
   -0.0485    0.0116   -1.4851 C   0  0  0  0  0  0  0  0  0  0  0  0
   -0.9832   -0.5427   -0.6143 C   0  0  0  0  0  0  0  0  0  0  0  0
   -2.1053   -1.1498   -1.3174 C   0  0  0  0  0  0  0  0  0  0  0  0
   -3.0199   -1.6363   -1.8673 N   0  0  0  0  0  0  0  0  0  0  0  0
   -0.9235   -0.5301    0.7358 C   0  0  0  0  0  0  0  0  0  0  0  0
   -1.8583   -1.0947    1.5978 N   0  0  0  0  0  0  0  0  0  0  0  0
   -1.7502   -1.1333    3.0507 C   0  0  0  0  0  0  0  0  0  0  0  0
   -3.0851   -1.7215    1.0862 C   0  0  0  0  0  0  0  0  0  0  0  0
    0.1999    0.1149    1.2719 C   0  0  0  0  0  0  0  0  0  0  0  0
    0.4429    0.2626    2.6587 C   0  0  0  0  0  0  0  0  0  0  0  0
    0.6544    0.4020    3.8237 N   0  0  0  0  0  0  0  0  0  0  0  0
    1.1589    0.6820    0.4201 C   0  0  0  0  0  0  0  0  0  0  0  0
    3.8680    1.2205   -0.7426 H   0  0  0  0  0  0  0  0  0  0  0  0
    3.6882    2.4819   -1.9850 H   0  0  0  0  0  0  0  0  0  0  0  0
    2.7640    2.6825   -0.4274 H   0  0  0  0  0  0  0  0  0  0  0  0
    2.9910    0.4756   -3.4869 H   0  0  0  0  0  0  0  0  0  0  0  0
    1.2423    0.5353   -3.6686 H   0  0  0  0  0  0  0  0  0  0  0  0
    2.1688    2.1219   -3.6481 H   0  0  0  0  0  0  0  0  0  0  0  0
   -0.1813   -0.0457   -2.5591 H   0  0  0  0  0  0  0  0  0  0  0  0
   -2.5594   -1.8350    3.4607 H   0  0  0  0  0  0  0  0  0  0  0  0
   -0.8265   -1.6749    3.3218 H   0  0  0  0  0  0  0  0  0  0  0  0
   -1.9515   -0.1906    3.5438 H   0  0  0  0  0  0  0  0  0  0  0  0
   -3.7460   -1.9833    1.9848 H   0  0  0  0  0  0  0  0  0  0  0  0
   -2.8824   -2.6294    0.5377 H   0  0  0  0  0  0  0  0  0  0  0  0
   -3.6303   -0.9046    0.5931 H   0  0  0  0  0  0  0  0  0  0  0  0
    2.0411    1.1889    0.8240 H   0  0  0  0  0  0  0  0  0  0  0  0
  1  2  1  0
  2  3  1  0
  2  4  1  0
  4  5  2  0
  5  6  1  0
  6  7  1  0
  7  8  3  0
  6  9  2  0
  9 10  1  0
 10 11  1  0
 10 12  1  0
  9 13  1  0
 13 14  1  0
 14 15  3  0
 13 16  2  0
 16  4  1  0
  1 17  1  0
  1 18  1  0
  1 19  1  0
  3 20  1  0
  3 21  1  0
  3 22  1  0
  5 23  1  0
 11 24  1  0
 11 25  1  0
 11 26  1  0
 12 27  1  0
 12 28  1  0
 12 29  1  0
 16 30  1  0
M  END
