
     RDKit          3D

 78 84  0  0  0  0  0  0  0  0999 V2000
   -6.1517   -3.0466    0.9748 C   0  0  0  0  0  0  0  0  0  0  0  0
   -5.3227   -2.9639   -0.2894 C   0  0  0  0  0  0  0  0  0  0  0  0
   -4.3445   -1.8247   -0.1180 C   0  0  0  0  0  0  0  0  0  0  0  0
   -3.4502   -1.6213   -1.3026 C   0  0  0  0  0  0  0  0  0  0  0  0
   -2.5212   -0.5304   -1.1466 N   0  0  0  0  0  0  0  0  0  0  0  0
   -2.9233    0.7518   -1.5025 C   0  0  0  0  0  0  0  0  0  0  0  0
   -4.1956    1.1320   -1.8594 C   0  0  0  0  0  0  0  0  0  0  0  0
   -4.4466    2.4798   -2.1411 C   0  0  0  0  0  0  0  0  0  0  0  0
   -3.4107    3.3486   -2.0447 C   0  0  0  0  0  0  0  0  0  0  0  0
   -2.1281    2.9208   -1.6774 C   0  0  0  0  0  0  0  0  0  0  0  0
   -1.8647    1.6035   -1.4014 C   0  0  0  0  0  0  0  0  0  0  0  0
   -0.7853    0.8529   -0.9800 C   0  0  0  0  0  0  0  0  0  0  0  0
   -1.2243   -0.4724   -0.8191 C   0  0  0  0  0  0  0  0  0  0  0  0
   -0.3121   -1.4427   -0.3752 C   0  0  0  0  0  0  0  0  0  0  0  0
   -0.4408   -2.7881   -0.1063 C   0  0  0  0  0  0  0  0  0  0  0  0
   -1.4652   -3.6901   -0.1125 C   0  0  0  0  0  0  0  0  0  0  0  0
   -1.2913   -5.0262    0.2710 C   0  0  0  0  0  0  0  0  0  0  0  0
   -0.0857   -5.4890    0.6716 C   0  0  0  0  0  0  0  0  0  0  0  0
    0.9472   -4.5507    0.6729 C   0  0  0  0  0  0  0  0  0  0  0  0
    0.7862   -3.2330    0.2968 C   0  0  0  0  0  0  0  0  0  0  0  0
    1.6962   -2.1796    0.2907 N   0  0  0  0  0  0  0  0  0  0  0  0
    3.0615   -2.5284    0.6039 C   0  0  0  0  0  0  0  0  0  0  0  0
    3.3449   -2.5326    2.0652 C   0  0  0  0  0  0  0  0  0  0  0  0
    4.7194   -2.9789    2.4674 C   0  0  0  0  0  0  0  0  0  0  0  0
    5.8624   -2.1958    1.9439 C   0  0  0  0  0  0  0  0  0  0  0  0
    1.0279   -1.1194   -0.1040 C   0  0  0  0  0  0  0  0  0  0  0  0
    1.4261    0.1998   -0.2768 C   0  0  0  0  0  0  0  0  0  0  0  0
    2.6512    0.8171   -0.0889 C   0  0  0  0  0  0  0  0  0  0  0  0
    3.8907    0.4292    0.3651 C   0  0  0  0  0  0  0  0  0  0  0  0
    4.9434    1.3496    0.4795 C   0  0  0  0  0  0  0  0  0  0  0  0
    4.7724    2.6532    0.1474 C   0  0  0  0  0  0  0  0  0  0  0  0
    3.5144    3.0545   -0.3129 C   0  0  0  0  0  0  0  0  0  0  0  0
    2.4786    2.1325   -0.4227 C   0  0  0  0  0  0  0  0  0  0  0  0
    1.1698    2.3462   -0.8125 N   0  0  0  0  0  0  0  0  0  0  0  0
    0.8316    3.6399   -1.3010 C   0  0  0  0  0  0  0  0  0  0  0  0
    0.4503    4.5497   -0.1777 C   0  0  0  0  0  0  0  0  0  0  0  0
    0.0882    5.9461   -0.5904 C   0  0  0  0  0  0  0  0  0  0  0  0
   -0.2641    6.7059    0.6889 C   0  0  0  0  0  0  0  0  0  0  0  0
    0.5241    1.1982   -0.7227 C   0  0  0  0  0  0  0  0  0  0  0  0
   -7.1097   -2.4984    0.8974 H   0  0  0  0  0  0  0  0  0  0  0  0
   -5.5772   -2.6390    1.8516 H   0  0  0  0  0  0  0  0  0  0  0  0
   -6.4030   -4.0968    1.2368 H   0  0  0  0  0  0  0  0  0  0  0  0
   -4.7562   -3.8998   -0.3550 H   0  0  0  0  0  0  0  0  0  0  0  0
   -5.9476   -2.8506   -1.1923 H   0  0  0  0  0  0  0  0  0  0  0  0
   -3.7868   -2.0245    0.8355 H   0  0  0  0  0  0  0  0  0  0  0  0
   -4.9859   -0.8903    0.0535 H   0  0  0  0  0  0  0  0  0  0  0  0
   -4.2408   -1.2907   -2.1209 H   0  0  0  0  0  0  0  0  0  0  0  0
   -3.0550   -2.5165   -1.7519 H   0  0  0  0  0  0  0  0  0  0  0  0
   -5.0112    0.4342   -1.9242 H   0  0  0  0  0  0  0  0  0  0  0  0
   -5.4606    2.7338   -2.4186 H   0  0  0  0  0  0  0  0  0  0  0  0
   -3.5859    4.4002   -2.2587 H   0  0  0  0  0  0  0  0  0  0  0  0
   -1.3981    3.6692   -1.5917 H   0  0  0  0  0  0  0  0  0  0  0  0
   -2.4526   -3.4700   -0.3640 H   0  0  0  0  0  0  0  0  0  0  0  0
   -2.1299   -5.7182    0.2522 H   0  0  0  0  0  0  0  0  0  0  0  0
    0.1136   -6.5035    0.9779 H   0  0  0  0  0  0  0  0  0  0  0  0
    1.9175   -4.9016    0.9962 H   0  0  0  0  0  0  0  0  0  0  0  0
    3.8236   -2.1872   -0.1075 H   0  0  0  0  0  0  0  0  0  0  0  0
    3.2075   -3.6752    0.3439 H   0  0  0  0  0  0  0  0  0  0  0  0
    3.1914   -1.5337    2.5691 H   0  0  0  0  0  0  0  0  0  0  0  0
    2.6403   -3.2791    2.5575 H   0  0  0  0  0  0  0  0  0  0  0  0
    4.7839   -2.9225    3.6005 H   0  0  0  0  0  0  0  0  0  0  0  0
    4.8721   -4.0764    2.2785 H   0  0  0  0  0  0  0  0  0  0  0  0
    5.8872   -2.1326    0.8292 H   0  0  0  0  0  0  0  0  0  0  0  0
    6.8346   -2.6441    2.2315 H   0  0  0  0  0  0  0  0  0  0  0  0
    5.8862   -1.1516    2.3079 H   0  0  0  0  0  0  0  0  0  0  0  0
    4.1134   -0.5269    0.6677 H   0  0  0  0  0  0  0  0  0  0  0  0
    5.9259    1.0172    0.8434 H   0  0  0  0  0  0  0  0  0  0  0  0
    5.5563    3.3890    0.2213 H   0  0  0  0  0  0  0  0  0  0  0  0
    3.3963    4.0953   -0.5643 H   0  0  0  0  0  0  0  0  0  0  0  0
    0.3498    3.7124   -2.2693 H   0  0  0  0  0  0  0  0  0  0  0  0
    1.8411    4.1559   -1.6502 H   0  0  0  0  0  0  0  0  0  0  0  0
    1.3429    4.6666    0.5074 H   0  0  0  0  0  0  0  0  0  0  0  0
   -0.3438    4.1578    0.4903 H   0  0  0  0  0  0  0  0  0  0  0  0
   -0.8204    5.9375   -1.2051 H   0  0  0  0  0  0  0  0  0  0  0  0
    0.9104    6.4633   -1.1148 H   0  0  0  0  0  0  0  0  0  0  0  0
    0.6294    7.2195    1.1143 H   0  0  0  0  0  0  0  0  0  0  0  0
   -0.6440    6.0287    1.4781 H   0  0  0  0  0  0  0  0  0  0  0  0
   -1.0732    7.4511    0.4932 H   0  0  0  0  0  0  0  0  0  0  0  0
  1  2  1  0
  2  3  1  0
  3  4  1  0
  4  5  1  0
  5  6  1  0
  6  7  2  0
  7  8  1  0
  8  9  2  0
  9 10  1  0
 10 11  2  0
 11 12  1  0
 12 13  2  0
 13 14  1  0
 14 15  1  0
 15 16  2  0
 16 17  1  0
 17 18  2  0
 18 19  1  0
 19 20  2  0
 20 21  1  0
 21 22  1  0
 22 23  1  0
 23 24  1  0
 24 25  1  0
 21 26  1  0
 26 27  1  0
 27 28  1  0
 28 29  2  0
 29 30  1  0
 30 31  2  0
 31 32  1  0
 32 33  2  0
 33 34  1  0
 34 35  1  0
 35 36  1  0
 36 37  1  0
 37 38  1  0
 34 39  1  0
 13  5  1  0
 26 14  2  0
 39 27  2  0
 11  6  1  0
 39 12  1  0
 20 15  1  0
 33 28  1  0
  1 40  1  0
  1 41  1  0
  1 42  1  0
  2 43  1  0
  2 44  1  0
  3 45  1  0
  3 46  1  0
  4 47  1  0
  4 48  1  0
  7 49  1  0
  8 50  1  0
  9 51  1  0
 10 52  1  0
 16 53  1  0
 17 54  1  0
 18 55  1  0
 19 56  1  0
 22 57  1  0
 22 58  1  0
 23 59  1  0
 23 60  1  0
 24 61  1  0
 24 62  1  0
 25 63  1  0
 25 64  1  0
 25 65  1  0
 29 66  1  0
 30 67  1  0
 31 68  1  0
 32 69  1  0
 35 70  1  0
 35 71  1  0
 36 72  1  0
 36 73  1  0
 37 74  1  0
 37 75  1  0
 38 76  1  0
 38 77  1  0
 38 78  1  0
M  END
