
     RDKit          3D

 18 18  0  0  0  0  0  0  0  0999 V2000
   -2.9185   -0.1004   -0.0787 C   0  0  0  0  0  0  0  0  0  0  0  0
   -1.4224   -0.0562   -0.0372 C   0  0  0  0  0  0  0  0  0  0  0  0
   -0.6889   -1.0016    0.6482 C   0  0  0  0  0  0  0  0  0  0  0  0
    0.7011   -0.9570    0.6843 C   0  0  0  0  0  0  0  0  0  0  0  0
    1.4096    0.0347    0.0363 C   0  0  0  0  0  0  0  0  0  0  0  0
    2.8936    0.1017    0.0614 C   0  0  0  0  0  0  0  0  0  0  0  0
    0.6757    0.9814   -0.6502 C   0  0  0  0  0  0  0  0  0  0  0  0
   -0.7088    0.9315   -0.6824 C   0  0  0  0  0  0  0  0  0  0  0  0
   -3.2464    0.6447   -0.8291 H   0  0  0  0  0  0  0  0  0  0  0  0
   -3.3610    0.2267    0.8908 H   0  0  0  0  0  0  0  0  0  0  0  0
   -3.2662   -1.1222   -0.2971 H   0  0  0  0  0  0  0  0  0  0  0  0
   -1.2235   -1.7854    1.1617 H   0  0  0  0  0  0  0  0  0  0  0  0
    1.2715   -1.7108    1.2302 H   0  0  0  0  0  0  0  0  0  0  0  0
    3.3699   -0.6435   -0.6029 H   0  0  0  0  0  0  0  0  0  0  0  0
    3.2382    1.0936   -0.2397 H   0  0  0  0  0  0  0  0  0  0  0  0
    3.2972   -0.0792    1.0881 H   0  0  0  0  0  0  0  0  0  0  0  0
    1.2412    1.7562   -1.1559 H   0  0  0  0  0  0  0  0  0  0  0  0
   -1.2624    1.6859   -1.2278 H   0  0  0  0  0  0  0  0  0  0  0  0
  1  2  1  0
  2  3  2  0
  3  4  1  0
  4  5  2  0
  5  6  1  0
  5  7  1  0
  7  8  2  0
  8  2  1  0
  1  9  1  0
  1 10  1  0
  1 11  1  0
  3 12  1  0
  4 13  1  0
  6 14  1  0
  6 15  1  0
  6 16  1  0
  7 17  1  0
  8 18  1  0
M  END
