
     RDKit          3D

 37 40  0  0  0  0  0  0  0  0999 V2000
   -0.0829    4.3809   -1.0792 O   0  0  0  0  0  0  0  0  0  0  0  0
   -0.2850    3.4321   -0.2979 C   0  0  0  0  0  0  0  0  0  0  0  0
   -1.6513    2.7802   -0.2780 C   0  0  0  0  0  0  0  0  0  0  0  0
   -1.6818    1.2709   -0.3585 C   0  0  0  0  0  0  0  0  0  0  0  0
   -2.2594    0.4558    0.6099 C   0  0  0  0  0  0  0  0  0  0  0  0
   -2.1353   -0.9684    0.5770 C   0  0  0  0  0  0  0  0  0  0  0  0
   -1.4306   -1.6142   -0.4270 C   0  0  0  0  0  0  0  0  0  0  0  0
   -0.8917   -0.8076   -1.3623 C   0  0  0  0  0  0  0  0  0  0  0  0
   -1.0147    0.6081   -1.3316 C   0  0  0  0  0  0  0  0  0  0  0  0
   -1.1378   -3.1060   -0.4051 C   0  0  0  0  0  0  0  0  0  0  0  0
    0.0435   -3.4474    0.4901 C   0  0  0  0  0  0  0  0  0  0  0  0
   -0.0694   -4.2991    1.3728 O   0  0  0  0  0  0  0  0  0  0  0  0
    1.3899   -2.8024    0.3782 C   0  0  0  0  0  0  0  0  0  0  0  0
    1.5055   -1.2971    0.5127 C   0  0  0  0  0  0  0  0  0  0  0  0
    0.8510   -0.5994    1.4909 C   0  0  0  0  0  0  0  0  0  0  0  0
    0.7039    0.7956    1.5751 C   0  0  0  0  0  0  0  0  0  0  0  0
    1.2502    1.5914    0.6098 C   0  0  0  0  0  0  0  0  0  0  0  0
    1.9633    0.8902   -0.4180 C   0  0  0  0  0  0  0  0  0  0  0  0
    2.6741    1.4409   -1.4990 N   0  0  0  0  0  0  0  0  0  0  0  0
    3.4164    0.3940   -2.4728 S   0  0  0  0  0  0  0  0  0  0  0  0
    2.8911   -0.8552   -1.5944 N   0  0  0  0  0  0  0  0  0  0  0  0
    2.1082   -0.4738   -0.4993 C   0  0  0  0  0  0  0  0  0  0  0  0
    0.8858    3.0574    0.5373 C   0  0  0  0  0  0  0  0  0  0  0  0
   -2.1023    3.1586    0.6840 H   0  0  0  0  0  0  0  0  0  0  0  0
   -2.2302    3.2912   -1.0969 H   0  0  0  0  0  0  0  0  0  0  0  0
   -2.8915    0.6782    1.4969 H   0  0  0  0  0  0  0  0  0  0  0  0
   -2.6875   -1.3454    1.4670 H   0  0  0  0  0  0  0  0  0  0  0  0
   -0.2546   -1.0964   -2.3074 H   0  0  0  0  0  0  0  0  0  0  0  0
   -0.4831    1.0325   -2.2925 H   0  0  0  0  0  0  0  0  0  0  0  0
   -1.9723   -3.7345    0.0205 H   0  0  0  0  0  0  0  0  0  0  0  0
   -0.9443   -3.5640   -1.3884 H   0  0  0  0  0  0  0  0  0  0  0  0
    2.0449   -3.3416    1.1297 H   0  0  0  0  0  0  0  0  0  0  0  0
    1.7199   -3.2677   -0.5542 H   0  0  0  0  0  0  0  0  0  0  0  0
    0.3405   -0.9589    2.4435 H   0  0  0  0  0  0  0  0  0  0  0  0
    0.1042    1.0555    2.5222 H   0  0  0  0  0  0  0  0  0  0  0  0
    1.7052    3.7431    0.2432 H   0  0  0  0  0  0  0  0  0  0  0  0
    0.6080    3.5225    1.5020 H   0  0  0  0  0  0  0  0  0  0  0  0
  1  2  2  0
  2  3  1  0
  3  4  1  0
  4  5  2  0
  5  6  1  0
  6  7  2  0
  7  8  1  0
  8  9  2  0
  7 10  1  0
 10 11  1  0
 11 12  2  0
 11 13  1  0
 13 14  1  0
 14 15  2  0
 15 16  1  0
 16 17  2  0
 17 18  1  0
 18 19  2  0
 19 20  1  0
 20 21  1  0
 21 22  2  0
 17 23  1  0
 23  2  1  0
  9  4  1  0
 22 14  1  0
 22 18  1  0
  3 24  1  0
  3 25  1  0
  5 26  1  0
  6 27  1  0
  8 28  1  0
  9 29  1  0
 10 30  1  0
 10 31  1  0
 13 32  1  0
 13 33  1  0
 15 34  1  0
 16 35  1  0
 23 36  1  0
 23 37  1  0
M  END
