
     RDKit          3D

 44 47  0  0  0  0  0  0  0  0999 V2000
   -0.9166    0.2823   -0.0098 C   0  0  0  0  0  0  0  0  0  0  0  0
   -1.8308    0.8638    0.7284 C   0  0  0  0  0  0  0  0  0  0  0  0
   -3.2712    0.6701    0.5678 C   0  0  0  0  0  0  0  0  0  0  0  0
   -4.1233    1.3412    1.4099 C   0  0  0  0  0  0  0  0  0  0  0  0
   -5.4810    1.1728    1.2753 C   0  0  0  0  0  0  0  0  0  0  0  0
   -6.0105    0.3432    0.3118 C   0  0  0  0  0  0  0  0  0  0  0  0
   -7.3675    0.1456    0.1426 C   0  0  0  0  0  0  0  0  0  0  0  0
   -7.8773   -0.6927   -0.8324 C   0  0  0  0  0  0  0  0  0  0  0  0
   -7.0287   -1.3658   -1.6765 C   0  0  0  0  0  0  0  0  0  0  0  0
   -5.6658   -1.1720   -1.5121 C   0  0  0  0  0  0  0  0  0  0  0  0
   -5.1668   -0.3318   -0.5345 C   0  0  0  0  0  0  0  0  0  0  0  0
   -3.7964   -0.1565   -0.3923 C   0  0  0  0  0  0  0  0  0  0  0  0
    0.5384    0.4891    0.1656 C   0  0  0  0  0  0  0  0  0  0  0  0
    1.0555    1.3112    1.1208 C   0  0  0  0  0  0  0  0  0  0  0  0
    2.4111    1.4857    1.2634 C   0  0  0  0  0  0  0  0  0  0  0  0
    3.2920    0.8277    0.4364 C   0  0  0  0  0  0  0  0  0  0  0  0
    4.6719    1.0565    0.5902 N   0  0  0  0  0  0  0  0  0  0  0  0
    5.6138    0.0817    0.2106 C   0  0  0  0  0  0  0  0  0  0  0  0
    6.8938    0.4760   -0.1398 C   0  0  0  0  0  0  0  0  0  0  0  0
    7.8940   -0.3892   -0.4938 C   0  0  0  0  0  0  0  0  0  0  0  0
    7.6308   -1.7359   -0.5082 C   0  0  0  0  0  0  0  0  0  0  0  0
    6.3654   -2.1722   -0.1645 C   0  0  0  0  0  0  0  0  0  0  0  0
    5.3669   -1.2696    0.1920 C   0  0  0  0  0  0  0  0  0  0  0  0
    2.7940   -0.0020   -0.5302 C   0  0  0  0  0  0  0  0  0  0  0  0
    1.4324   -0.1662   -0.6595 C   0  0  0  0  0  0  0  0  0  0  0  0
   -1.2499   -0.4000   -0.8072 H   0  0  0  0  0  0  0  0  0  0  0  0
   -1.4770    1.5457    1.5243 H   0  0  0  0  0  0  0  0  0  0  0  0
   -3.7638    2.0176    2.1990 H   0  0  0  0  0  0  0  0  0  0  0  0
   -6.1773    1.6879    1.9237 H   0  0  0  0  0  0  0  0  0  0  0  0
   -8.0492    0.6563    0.7849 H   0  0  0  0  0  0  0  0  0  0  0  0
   -8.9449   -0.8386   -0.9542 H   0  0  0  0  0  0  0  0  0  0  0  0
   -7.3956   -2.0274   -2.4477 H   0  0  0  0  0  0  0  0  0  0  0  0
   -4.9732   -1.6911   -2.1650 H   0  0  0  0  0  0  0  0  0  0  0  0
   -3.1686   -0.7082   -1.0809 H   0  0  0  0  0  0  0  0  0  0  0  0
    0.4324    1.8566    1.8011 H   0  0  0  0  0  0  0  0  0  0  0  0
    2.8300    2.1506    2.0359 H   0  0  0  0  0  0  0  0  0  0  0  0
    5.0440    1.9738    0.9987 H   0  0  0  0  0  0  0  0  0  0  0  0
    7.1085    1.5254   -0.1314 H   0  0  0  0  0  0  0  0  0  0  0  0
    8.8962   -0.0810   -0.7682 H   0  0  0  0  0  0  0  0  0  0  0  0
    8.4080   -2.4590   -0.7872 H   0  0  0  0  0  0  0  0  0  0  0  0
    6.1810   -3.2411   -0.1832 H   0  0  0  0  0  0  0  0  0  0  0  0
    4.4255   -1.6971    0.4620 H   0  0  0  0  0  0  0  0  0  0  0  0
    3.4296   -0.5403   -1.2360 H   0  0  0  0  0  0  0  0  0  0  0  0
    1.0200   -0.8229   -1.4225 H   0  0  0  0  0  0  0  0  0  0  0  0
  1  2  2  0
  2  3  1  0
  3  4  2  0
  4  5  1  0
  5  6  2  0
  6  7  1  0
  7  8  2  0
  8  9  1  0
  9 10  2  0
 10 11  1  0
 11 12  2  0
  1 13  1  0
 13 14  2  0
 14 15  1  0
 15 16  2  0
 16 17  1  0
 17 18  1  0
 18 19  2  0
 19 20  1  0
 20 21  2  0
 21 22  1  0
 22 23  2  0
 16 24  1  0
 24 25  2  0
 12  3  1  0
 25 13  1  0
 11  6  1  0
 23 18  1  0
  1 26  1  0
  2 27  1  0
  4 28  1  0
  5 29  1  0
  7 30  1  0
  8 31  1  0
  9 32  1  0
 10 33  1  0
 12 34  1  0
 14 35  1  0
 15 36  1  0
 17 37  1  0
 19 38  1  0
 20 39  1  0
 21 40  1  0
 22 41  1  0
 23 42  1  0
 24 43  1  0
 25 44  1  0
M  END
