
     RDKit          3D

 68 72  0  0  0  0  0  0  0  0999 V2000
    4.6733    3.2480   -0.7299 C   0  0  0  0  0  0  0  0  0  0  0  0
    4.2895    2.6153    0.5681 C   0  0  0  0  0  0  0  0  0  0  0  0
    3.8119    1.2772    0.4368 N   0  0  0  0  0  0  0  0  0  0  0  0
    4.5839    0.1783    0.5098 C   0  0  0  0  0  0  0  0  0  0  0  0
    5.9437    0.3308    0.6958 C   0  0  0  0  0  0  0  0  0  0  0  0
    6.8161   -0.7513    0.7765 C   0  0  0  0  0  0  0  0  0  0  0  0
    6.3487   -2.0211    0.6723 C   0  0  0  0  0  0  0  0  0  0  0  0
    7.4522   -3.3806    0.7753 S   0  0  0  0  0  6  0  0  0  0  0  0
    8.5803   -2.9497    1.6865 O   0  0  0  0  0  0  0  0  0  0  0  0
    6.7755   -4.5610    1.3927 O   0  0  0  0  0  0  0  0  0  0  0  0
    8.0457   -3.8070   -0.7324 O   0  0  0  0  0  0  0  0  0  0  0  0
    5.0032   -2.2106    0.4861 C   0  0  0  0  0  0  0  0  0  0  0  0
    4.1330   -1.1154    0.4059 C   0  0  0  0  0  0  0  0  0  0  0  0
    2.7882   -1.3142    0.2111 C   0  0  0  0  0  0  0  0  0  0  0  0
    2.3109   -2.4776    0.1086 O   0  0  0  0  0  0  0  0  0  0  0  0
    1.9789   -0.1993    0.1316 C   0  0  0  0  0  0  0  0  0  0  0  0
    0.6216   -0.3646   -0.0752 C   0  0  0  0  0  0  0  0  0  0  0  0
   -0.2868    0.6542   -0.1834 C   0  0  0  0  0  0  0  0  0  0  0  0
    0.2302    1.9274   -0.0719 C   0  0  0  0  0  0  0  0  0  0  0  0
    1.6000    2.1401    0.1383 C   0  0  0  0  0  0  0  0  0  0  0  0
    2.4731    1.0860    0.2411 C   0  0  0  0  0  0  0  0  0  0  0  0
   -0.6011    3.0156   -0.1601 C   0  0  0  0  0  0  0  0  0  0  0  0
   -0.1397    4.1830   -0.0600 O   0  0  0  0  0  0  0  0  0  0  0  0
   -1.9452    2.7849   -0.3602 C   0  0  0  0  0  0  0  0  0  0  0  0
   -2.8203    3.8718   -0.4476 C   0  0  0  0  0  0  0  0  0  0  0  0
   -4.1677    3.7066   -0.6391 C   0  0  0  0  0  0  0  0  0  0  0  0
   -5.2461    5.0728   -0.7462 S   0  0  0  0  0  6  0  0  0  0  0  0
   -4.5372    6.1865   -1.4344 O   0  0  0  0  0  0  0  0  0  0  0  0
   -6.4243    4.6593   -1.5843 O   0  0  0  0  0  0  0  0  0  0  0  0
   -5.8245    5.4879    0.7627 O   0  0  0  0  0  0  0  0  0  0  0  0
   -4.6381    2.4375   -0.7431 C   0  0  0  0  0  0  0  0  0  0  0  0
   -3.7650    1.3473   -0.6562 C   0  0  0  0  0  0  0  0  0  0  0  0
   -2.4158    1.4993   -0.4656 C   0  0  0  0  0  0  0  0  0  0  0  0
   -1.6067    0.4015   -0.3820 N   0  0  0  0  0  0  0  0  0  0  0  0
   -2.1312   -0.9390   -0.5162 C   0  0  0  0  0  0  0  0  0  0  0  0
   -2.5543   -1.5185    0.8022 C   0  0  0  0  0  0  0  0  0  0  0  0
   -3.1013   -2.8989    0.7128 C   0  0  0  0  0  0  0  0  0  0  0  0
   -4.3267   -2.9970   -0.1691 C   0  0  0  0  0  0  0  0  0  0  0  0
   -4.8336   -4.4230   -0.2185 C   0  0  0  0  0  0  0  0  0  0  0  0
   -6.0250   -4.5339   -1.0724 C   0  0  0  0  0  0  0  0  0  0  0  0
   -6.5896   -5.6313   -1.2393 O   0  0  0  0  0  0  0  0  0  0  0  0
   -6.5100   -3.3918   -1.6903 O   0  0  0  0  0  0  0  0  0  0  0  0
    5.7794    3.1308   -0.8959 H   0  0  0  0  0  0  0  0  0  0  0  0
    4.1891    2.8228   -1.6143 H   0  0  0  0  0  0  0  0  0  0  0  0
    4.5261    4.3611   -0.6410 H   0  0  0  0  0  0  0  0  0  0  0  0
    3.5415    3.2264    1.1592 H   0  0  0  0  0  0  0  0  0  0  0  0
    5.1848    2.7154    1.2687 H   0  0  0  0  0  0  0  0  0  0  0  0
    6.3509    1.3063    0.7727 H   0  0  0  0  0  0  0  0  0  0  0  0
    7.8894   -0.6045    0.9245 H   0  0  0  0  0  0  0  0  0  0  0  0
    7.4531   -4.5260   -1.1051 H   0  0  0  0  0  0  0  0  0  0  0  0
    4.5872   -3.1999    0.3978 H   0  0  0  0  0  0  0  0  0  0  0  0
    0.2822   -1.3694   -0.1450 H   0  0  0  0  0  0  0  0  0  0  0  0
    1.9448    3.1571    0.2030 H   0  0  0  0  0  0  0  0  0  0  0  0
   -2.3830    4.8616   -0.3565 H   0  0  0  0  0  0  0  0  0  0  0  0
   -6.6180    5.0001    1.0327 H   0  0  0  0  0  0  0  0  0  0  0  0
   -5.6843    2.2757   -0.8926 H   0  0  0  0  0  0  0  0  0  0  0  0
   -4.2301    0.3997   -0.7418 H   0  0  0  0  0  0  0  0  0  0  0  0
   -1.4183   -1.6545   -0.9948 H   0  0  0  0  0  0  0  0  0  0  0  0
   -2.9795   -0.9679   -1.2648 H   0  0  0  0  0  0  0  0  0  0  0  0
   -3.3387   -0.8867    1.3046 H   0  0  0  0  0  0  0  0  0  0  0  0
   -1.7043   -1.5326    1.5098 H   0  0  0  0  0  0  0  0  0  0  0  0
   -2.3892   -3.6574    0.3627 H   0  0  0  0  0  0  0  0  0  0  0  0
   -3.4210   -3.2063    1.7304 H   0  0  0  0  0  0  0  0  0  0  0  0
   -4.0531   -2.7282   -1.2217 H   0  0  0  0  0  0  0  0  0  0  0  0
   -5.1086   -2.2906    0.1430 H   0  0  0  0  0  0  0  0  0  0  0  0
   -5.0450   -4.8054    0.8109 H   0  0  0  0  0  0  0  0  0  0  0  0
   -4.0363   -5.0683   -0.6273 H   0  0  0  0  0  0  0  0  0  0  0  0
   -7.2891   -3.3850   -2.3245 H   0  0  0  0  0  0  0  0  0  0  0  0
  1  2  1  0
  2  3  1  0
  3  4  1  0
  4  5  2  0
  5  6  1  0
  6  7  2  0
  7  8  1  0
  8  9  2  0
  8 10  2  0
  8 11  1  0
  7 12  1  0
 12 13  2  0
 13 14  1  0
 14 15  2  0
 14 16  1  0
 16 17  2  0
 17 18  1  0
 18 19  2  0
 19 20  1  0
 20 21  2  0
 19 22  1  0
 22 23  2  0
 22 24  1  0
 24 25  2  0
 25 26  1  0
 26 27  1  0
 27 28  2  0
 27 29  2  0
 27 30  1  0
 26 31  2  0
 31 32  1  0
 32 33  2  0
 33 34  1  0
 34 35  1  0
 35 36  1  0
 36 37  1  0
 37 38  1  0
 38 39  1  0
 39 40  1  0
 40 41  2  0
 40 42  1  0
 21  3  1  0
 33 24  1  0
 13  4  1  0
 21 16  1  0
 34 18  1  0
  1 43  1  0
  1 44  1  0
  1 45  1  0
  2 46  1  0
  2 47  1  0
  5 48  1  0
  6 49  1  0
 11 50  1  0
 12 51  1  0
 17 52  1  0
 20 53  1  0
 25 54  1  0
 30 55  1  0
 31 56  1  0
 32 57  1  0
 35 58  1  0
 35 59  1  0
 36 60  1  0
 36 61  1  0
 37 62  1  0
 37 63  1  0
 38 64  1  0
 38 65  1  0
 39 66  1  0
 39 67  1  0
 42 68  1  0
M  END
