
     RDKit          3D

 47 50  0  0  0  0  0  0  0  0999 V2000
    1.5076   -3.2464    0.0909 O   0  0  0  0  0  1  0  0  0  0  0  0
    0.4784   -2.3369    0.0360 N   0  0  0  0  0  4  0  0  0  0  0  0
    0.7131   -1.0127    0.0123 C   0  0  0  0  0  0  0  0  0  0  0  0
    2.1279   -0.5725    0.0462 C   0  0  0  0  0  0  0  0  0  0  0  0
    2.4822    0.6918    0.0145 C   0  0  0  0  0  0  0  0  0  0  0  0
    3.8569    1.1419    0.0470 C   0  0  0  0  0  0  0  0  0  0  0  0
    4.1397    2.5099    0.0092 C   0  0  0  0  0  0  0  0  0  0  0  0
    5.4206    3.0098    0.0366 C   0  0  0  0  0  0  0  0  0  0  0  0
    6.4756    2.1289    0.1043 C   0  0  0  0  0  0  0  0  0  0  0  0
    6.2413    0.7771    0.1433 C   0  0  0  0  0  0  0  0  0  0  0  0
    4.9249    0.2965    0.1139 C   0  0  0  0  0  0  0  0  0  0  0  0
   -0.3062   -0.1430   -0.0410 N   0  0  0  0  0  0  0  0  0  0  0  0
   -1.5876   -0.5121   -0.0738 C   0  0  0  0  0  0  0  0  0  0  0  0
   -2.6239    0.4114   -0.1380 N   0  0  0  0  0  0  0  0  0  0  0  0
   -2.5712    1.8153   -0.1549 C   0  0  0  0  0  0  0  0  0  0  0  0
   -3.7183    2.5456   -0.4933 C   0  0  0  0  0  0  0  0  0  0  0  0
   -3.7853    3.9051   -0.5292 C   0  0  0  0  0  0  0  0  0  0  0  0
   -2.6338    4.6214   -0.2072 C   0  0  0  0  0  0  0  0  0  0  0  0
   -1.4751    3.9704    0.1338 C   0  0  0  0  0  0  0  0  0  0  0  0
   -1.4689    2.5883    0.1527 C   0  0  0  0  0  0  0  0  0  0  0  0
   -1.8837   -1.8927   -0.0513 C   0  0  0  0  0  0  0  0  0  0  0  0
   -0.8341   -2.7469    0.0031 C   0  0  0  0  0  0  0  0  0  0  0  0
   -1.0215   -4.2351    0.0362 C   0  0  0  0  0  0  0  0  0  0  0  0
   -2.3655   -4.4638    0.7197 C   0  0  0  0  0  0  0  0  0  0  0  0
   -3.4069   -3.8190   -0.1915 C   0  0  0  0  0  0  0  0  0  0  0  0
   -3.2922   -2.3320   -0.0896 C   0  0  0  0  0  0  0  0  0  0  0  0
    2.9181   -1.3167    0.0997 H   0  0  0  0  0  0  0  0  0  0  0  0
    1.6644    1.4385   -0.0428 H   0  0  0  0  0  0  0  0  0  0  0  0
    3.3205    3.2275   -0.0446 H   0  0  0  0  0  0  0  0  0  0  0  0
    5.6162    4.0749    0.0063 H   0  0  0  0  0  0  0  0  0  0  0  0
    7.5109    2.4920    0.1280 H   0  0  0  0  0  0  0  0  0  0  0  0
    7.0537    0.0501    0.1971 H   0  0  0  0  0  0  0  0  0  0  0  0
    4.7905   -0.7597    0.1460 H   0  0  0  0  0  0  0  0  0  0  0  0
   -3.6136    0.0011   -0.1747 H   0  0  0  0  0  0  0  0  0  0  0  0
   -4.6167    1.9951   -0.7456 H   0  0  0  0  0  0  0  0  0  0  0  0
   -4.6857    4.4590   -0.7946 H   0  0  0  0  0  0  0  0  0  0  0  0
   -2.7106    5.6997   -0.2427 H   0  0  0  0  0  0  0  0  0  0  0  0
   -0.6104    4.5547    0.3750 H   0  0  0  0  0  0  0  0  0  0  0  0
   -0.5510    2.0743    0.4333 H   0  0  0  0  0  0  0  0  0  0  0  0
   -1.1290   -4.6439   -0.9886 H   0  0  0  0  0  0  0  0  0  0  0  0
   -0.2177   -4.7352    0.6112 H   0  0  0  0  0  0  0  0  0  0  0  0
   -2.5835   -5.5188    0.8771 H   0  0  0  0  0  0  0  0  0  0  0  0
   -2.3004   -3.9337    1.6972 H   0  0  0  0  0  0  0  0  0  0  0  0
   -4.4185   -4.1813    0.0326 H   0  0  0  0  0  0  0  0  0  0  0  0
   -3.1553   -4.1929   -1.2233 H   0  0  0  0  0  0  0  0  0  0  0  0
   -3.8592   -1.8532   -0.9211 H   0  0  0  0  0  0  0  0  0  0  0  0
   -3.8167   -2.0317    0.8447 H   0  0  0  0  0  0  0  0  0  0  0  0
  1  2  1  0
  2  3  2  0
  3  4  1  0
  4  5  2  0
  5  6  1  0
  6  7  2  0
  7  8  1  0
  8  9  2  0
  9 10  1  0
 10 11  2  0
  3 12  1  0
 12 13  2  0
 13 14  1  0
 14 15  1  0
 15 16  2  0
 16 17  1  0
 17 18  2  0
 18 19  1  0
 19 20  2  0
 13 21  1  0
 21 22  2  0
 22 23  1  0
 23 24  1  0
 24 25  1  0
 25 26  1  0
 22  2  1  0
 11  6  1  0
 20 15  1  0
 26 21  1  0
  4 27  1  0
  5 28  1  0
  7 29  1  0
  8 30  1  0
  9 31  1  0
 10 32  1  0
 11 33  1  0
 14 34  1  0
 16 35  1  0
 17 36  1  0
 18 37  1  0
 19 38  1  0
 20 39  1  0
 23 40  1  0
 23 41  1  0
 24 42  1  0
 24 43  1  0
 25 44  1  0
 25 45  1  0
 26 46  1  0
 26 47  1  0
M  CHG  2   1  -1   2   1
M  END
