
     RDKit          3D

 37 38  0  0  0  0  0  0  0  0999 V2000
    4.6592   -2.9178    0.2477 C   0  0  0  0  0  0  0  0  0  0  0  0
    4.5992   -1.4775   -0.1447 C   0  0  0  0  0  0  0  0  0  0  0  0
    3.2399   -1.0285   -0.1055 O   0  0  0  0  0  0  0  0  0  0  0  0
    2.8897    0.2713   -0.4239 C   0  0  0  0  0  0  0  0  0  0  0  0
    3.7992    1.0630   -0.7531 O   0  0  0  0  0  0  0  0  0  0  0  0
    1.5142    0.7633   -0.3947 C   0  0  0  0  0  0  0  0  0  0  0  0
    0.5105   -0.0969   -0.0353 C   0  0  0  0  0  0  0  0  0  0  0  0
   -0.8080    0.3810   -0.0090 C   0  0  0  0  0  0  0  0  0  0  0  0
   -1.8785   -0.5278    0.3737 C   0  0  0  0  0  0  0  0  0  0  0  0
   -3.0877   -0.2765    0.4606 O   0  0  0  0  0  0  0  0  0  0  0  0
   -1.5219   -1.8663    0.6898 O   0  0  0  0  0  0  0  0  0  0  0  0
   -2.5430   -2.7657    1.0635 C   0  0  0  0  0  0  0  0  0  0  0  0
   -2.0426   -4.1290    1.3675 C   0  0  0  0  0  0  0  0  0  0  0  0
   -1.0139    1.6909   -0.3475 C   0  0  0  0  0  0  0  0  0  0  0  0
   -2.2699    2.2325   -0.3470 C   0  0  0  0  0  0  0  0  0  0  0  0
   -2.4464    3.5717   -0.6976 C   0  0  0  0  0  0  0  0  0  0  0  0
   -3.7725    4.0833   -0.6803 N   0  0  0  0  0  0  0  0  0  0  0  0
   -1.3917    4.3843   -1.0499 C   0  0  0  0  0  0  0  0  0  0  0  0
   -0.1183    3.8627   -1.0581 C   0  0  0  0  0  0  0  0  0  0  0  0
    0.0437    2.5353   -0.7091 C   0  0  0  0  0  0  0  0  0  0  0  0
    1.2751    2.0427   -0.7208 N   0  0  0  0  0  0  0  0  0  0  0  0
    5.7197   -3.2109    0.4264 H   0  0  0  0  0  0  0  0  0  0  0  0
    4.2693   -3.6013   -0.5299 H   0  0  0  0  0  0  0  0  0  0  0  0
    4.1280   -3.1085    1.2180 H   0  0  0  0  0  0  0  0  0  0  0  0
    5.0236   -1.3792   -1.1624 H   0  0  0  0  0  0  0  0  0  0  0  0
    5.2257   -0.8763    0.5246 H   0  0  0  0  0  0  0  0  0  0  0  0
    0.6640   -1.1222    0.2306 H   0  0  0  0  0  0  0  0  0  0  0  0
   -3.0250   -2.3635    1.9993 H   0  0  0  0  0  0  0  0  0  0  0  0
   -3.3268   -2.7197    0.2858 H   0  0  0  0  0  0  0  0  0  0  0  0
   -2.5487   -4.6330    2.2172 H   0  0  0  0  0  0  0  0  0  0  0  0
   -2.2445   -4.7759    0.4776 H   0  0  0  0  0  0  0  0  0  0  0  0
   -0.9426   -4.1406    1.5960 H   0  0  0  0  0  0  0  0  0  0  0  0
   -3.1208    1.6369   -0.0799 H   0  0  0  0  0  0  0  0  0  0  0  0
   -4.4680    3.8868   -1.4186 H   0  0  0  0  0  0  0  0  0  0  0  0
   -4.0702    4.6994    0.1297 H   0  0  0  0  0  0  0  0  0  0  0  0
   -1.6237    5.4061   -1.3057 H   0  0  0  0  0  0  0  0  0  0  0  0
    0.7038    4.5058   -1.3354 H   0  0  0  0  0  0  0  0  0  0  0  0
  1  2  1  0
  2  3  1  0
  3  4  1  0
  4  5  2  0
  4  6  1  0
  6  7  2  0
  7  8  1  0
  8  9  1  0
  9 10  2  0
  9 11  1  0
 11 12  1  0
 12 13  1  0
  8 14  2  0
 14 15  1  0
 15 16  2  0
 16 17  1  0
 16 18  1  0
 18 19  2  0
 19 20  1  0
 20 21  2  0
 21  6  1  0
 20 14  1  0
  1 22  1  0
  1 23  1  0
  1 24  1  0
  2 25  1  0
  2 26  1  0
  7 27  1  0
 12 28  1  0
 12 29  1  0
 13 30  1  0
 13 31  1  0
 13 32  1  0
 15 33  1  0
 17 34  1  0
 17 35  1  0
 18 36  1  0
 19 37  1  0
M  END
