
     RDKit          3D

 47 50  0  0  0  0  0  0  0  0999 V2000
   -2.8942   -2.8194   -1.5078 C   0  0  0  0  0  0  0  0  0  0  0  0
   -1.8537   -2.9536   -0.4749 C   0  0  0  0  0  0  0  0  0  0  0  0
   -1.1814   -3.9695   -0.4610 O   0  0  0  0  0  0  0  0  0  0  0  0
   -1.5416   -1.8687    0.6261 B   0  0  0  0  0  4  0  0  0  0  0  0
   -1.9912   -2.4199    2.0565 C   0  0  0  0  0  0  0  0  0  0  0  0
   -2.9998   -3.5050    2.1975 C   0  0  0  0  0  0  0  0  0  0  0  0
   -1.5161   -1.9627    3.0807 O   0  0  0  0  0  0  0  0  0  0  0  0
   -2.3003   -0.6233    0.3974 O   0  0  0  0  0  0  0  0  0  0  0  0
   -1.7072    0.6118    0.1919 C   0  0  0  0  0  0  0  0  0  0  0  0
   -2.5415    1.8012   -0.0283 C   0  0  0  0  0  0  0  0  0  0  0  0
   -2.0477    3.0544   -0.2384 C   0  0  0  0  0  0  0  0  0  0  0  0
   -2.9265    4.1311   -0.4398 C   0  0  0  0  0  0  0  0  0  0  0  0
   -4.2903    3.9630   -0.4324 C   0  0  0  0  0  0  0  0  0  0  0  0
   -4.7939    2.7001   -0.2207 C   0  0  0  0  0  0  0  0  0  0  0  0
   -3.9187    1.6484   -0.0237 C   0  0  0  0  0  0  0  0  0  0  0  0
   -0.3906    0.6729    0.2022 C   0  0  0  0  0  0  0  0  0  0  0  0
    0.4243   -0.5080    0.4207 C   0  0  0  0  0  0  0  0  0  0  0  0
    1.9140   -0.4047    0.4264 C   0  0  0  0  0  0  0  0  0  0  0  0
    2.6661   -1.5450    0.6368 C   0  0  0  0  0  0  0  0  0  0  0  0
    4.0367   -1.5193    0.6541 C   0  0  0  0  0  0  0  0  0  0  0  0
    4.6366   -0.2945    0.4506 C   0  0  0  0  0  0  0  0  0  0  0  0
    6.0314   -0.2587    0.4665 C   0  0  0  0  0  0  0  0  0  0  0  0
    6.6349    0.9587    0.2644 C   0  0  0  0  0  0  0  0  0  0  0  0
    5.9455    2.1333    0.0490 C   0  0  0  0  0  0  0  0  0  0  0  0
    4.5675    2.0863    0.0353 C   0  0  0  0  0  0  0  0  0  0  0  0
    3.9385    0.8710    0.2367 C   0  0  0  0  0  0  0  0  0  0  0  0
    2.5466    0.7893    0.2287 C   0  0  0  0  0  0  0  0  0  0  0  0
   -0.0924   -1.6310    0.6078 O   0  0  0  0  0  3  0  0  0  0  0  0
   -3.7940   -2.2678   -1.1731 H   0  0  0  0  0  0  0  0  0  0  0  0
   -2.4725   -2.3700   -2.4482 H   0  0  0  0  0  0  0  0  0  0  0  0
   -3.2454   -3.8349   -1.8132 H   0  0  0  0  0  0  0  0  0  0  0  0
   -2.9948   -4.1804    1.3129 H   0  0  0  0  0  0  0  0  0  0  0  0
   -4.0388   -3.0772    2.2887 H   0  0  0  0  0  0  0  0  0  0  0  0
   -2.8012   -4.0703    3.1401 H   0  0  0  0  0  0  0  0  0  0  0  0
   -0.9786    3.2406   -0.2538 H   0  0  0  0  0  0  0  0  0  0  0  0
   -2.5351    5.1292   -0.6073 H   0  0  0  0  0  0  0  0  0  0  0  0
   -4.9760    4.8036   -0.5896 H   0  0  0  0  0  0  0  0  0  0  0  0
   -5.8670    2.5480   -0.2113 H   0  0  0  0  0  0  0  0  0  0  0  0
   -4.3145    0.6400    0.1455 H   0  0  0  0  0  0  0  0  0  0  0  0
    0.0954    1.6567    0.0388 H   0  0  0  0  0  0  0  0  0  0  0  0
    2.1354   -2.4855    0.7920 H   0  0  0  0  0  0  0  0  0  0  0  0
    4.6260   -2.4052    0.8176 H   0  0  0  0  0  0  0  0  0  0  0  0
    6.5679   -1.1695    0.6335 H   0  0  0  0  0  0  0  0  0  0  0  0
    7.7354    0.9751    0.2790 H   0  0  0  0  0  0  0  0  0  0  0  0
    6.4940    3.0465   -0.1011 H   0  0  0  0  0  0  0  0  0  0  0  0
    3.9749    2.9580   -0.1258 H   0  0  0  0  0  0  0  0  0  0  0  0
    2.0342    1.7247    0.0578 H   0  0  0  0  0  0  0  0  0  0  0  0
  1  2  1  0
  2  3  2  0
  2  4  1  0
  4  5  1  0
  5  6  1  0
  5  7  2  0
  4  8  1  0
  8  9  1  0
  9 10  1  0
 10 11  2  0
 11 12  1  0
 12 13  2  0
 13 14  1  0
 14 15  2  0
  9 16  2  0
 16 17  1  0
 17 18  1  0
 18 19  2  0
 19 20  1  0
 20 21  2  0
 21 22  1  0
 22 23  2  0
 23 24  1  0
 24 25  2  0
 25 26  1  0
 26 27  2  0
 17 28  2  0
 28  4  1  0
 15 10  1  0
 27 18  1  0
 26 21  1  0
  1 29  1  0
  1 30  1  0
  1 31  1  0
  6 32  1  0
  6 33  1  0
  6 34  1  0
 11 35  1  0
 12 36  1  0
 13 37  1  0
 14 38  1  0
 15 39  1  0
 16 40  1  0
 19 41  1  0
 20 42  1  0
 22 43  1  0
 23 44  1  0
 24 45  1  0
 25 46  1  0
 27 47  1  0
M  CHG  2   4  -1  28   1
M  END
