
     RDKit          3D

 44 48  0  0  0  0  0  0  0  0999 V2000
   -8.3090   -2.1206    0.1419 C   0  0  0  0  0  0  0  0  0  0  0  0
   -8.4775   -0.7535    0.2338 C   0  0  0  0  0  0  0  0  0  0  0  0
   -7.4013    0.1120    0.2503 C   0  0  0  0  0  0  0  0  0  0  0  0
   -6.1455   -0.3970    0.1742 C   0  0  0  0  0  0  0  0  0  0  0  0
   -4.9515    0.4524    0.1856 C   0  0  0  0  0  0  0  0  0  0  0  0
   -5.0001    1.8327    0.2741 C   0  0  0  0  0  0  0  0  0  0  0  0
   -3.7001    2.2338    0.2536 N   0  0  0  0  0  0  0  0  0  0  0  0
   -2.9132    1.1484    0.1577 C   0  0  0  0  0  0  0  0  0  0  0  0
   -1.4516    1.1469    0.1062 C   0  0  0  0  0  0  0  0  0  0  0  0
   -0.7364   -0.0282    0.0073 C   0  0  0  0  0  0  0  0  0  0  0  0
    0.6505   -0.0387   -0.0421 C   0  0  0  0  0  0  0  0  0  0  0  0
    1.3723    1.1366    0.0064 C   0  0  0  0  0  0  0  0  0  0  0  0
    2.8319    1.1267   -0.0454 C   0  0  0  0  0  0  0  0  0  0  0  0
    3.5747    2.2581   -0.0004 N   0  0  0  0  0  0  0  0  0  0  0  0
    4.8537    1.8882   -0.0685 C   0  0  0  0  0  0  0  0  0  0  0  0
    4.8989    0.5207   -0.1560 C   0  0  0  0  0  0  0  0  0  0  0  0
    6.1089   -0.3121   -0.2508 C   0  0  0  0  0  0  0  0  0  0  0  0
    7.3398    0.3025   -0.2553 C   0  0  0  0  0  0  0  0  0  0  0  0
    8.5241   -0.4129   -0.3418 C   0  0  0  0  0  0  0  0  0  0  0  0
    8.4792   -1.7852   -0.4264 C   0  0  0  0  0  0  0  0  0  0  0  0
    7.2412   -2.3895   -0.4210 C   0  0  0  0  0  0  0  0  0  0  0  0
    6.0562   -1.6692   -0.3342 C   0  0  0  0  0  0  0  0  0  0  0  0
    3.6503    0.1231   -0.1372 O   0  0  0  0  0  0  0  0  0  0  0  0
    0.6499    2.3054    0.1052 C   0  0  0  0  0  0  0  0  0  0  0  0
   -0.7311    2.3215    0.1547 C   0  0  0  0  0  0  0  0  0  0  0  0
   -3.6986    0.1026    0.1196 O   0  0  0  0  0  0  0  0  0  0  0  0
   -5.9440   -1.7666    0.0810 C   0  0  0  0  0  0  0  0  0  0  0  0
   -7.0217   -2.6155    0.0655 C   0  0  0  0  0  0  0  0  0  0  0  0
   -9.1614   -2.7810    0.1304 H   0  0  0  0  0  0  0  0  0  0  0  0
   -9.4945   -0.3346    0.2958 H   0  0  0  0  0  0  0  0  0  0  0  0
   -7.5352    1.1915    0.3229 H   0  0  0  0  0  0  0  0  0  0  0  0
   -5.8535    2.4750    0.3444 H   0  0  0  0  0  0  0  0  0  0  0  0
   -1.3290   -0.9414   -0.0293 H   0  0  0  0  0  0  0  0  0  0  0  0
    1.1395   -0.9887   -0.1189 H   0  0  0  0  0  0  0  0  0  0  0  0
    5.7081    2.5356   -0.0578 H   0  0  0  0  0  0  0  0  0  0  0  0
    7.3988    1.3838   -0.1895 H   0  0  0  0  0  0  0  0  0  0  0  0
    9.4905    0.0774   -0.3449 H   0  0  0  0  0  0  0  0  0  0  0  0
    9.3956   -2.3626   -0.4949 H   0  0  0  0  0  0  0  0  0  0  0  0
    7.2092   -3.4798   -0.4883 H   0  0  0  0  0  0  0  0  0  0  0  0
    5.0878   -2.1726   -0.3318 H   0  0  0  0  0  0  0  0  0  0  0  0
    1.2045    3.2427    0.1446 H   0  0  0  0  0  0  0  0  0  0  0  0
   -1.2557    3.2856    0.2337 H   0  0  0  0  0  0  0  0  0  0  0  0
   -4.9409   -2.1679    0.0205 H   0  0  0  0  0  0  0  0  0  0  0  0
   -6.8136   -3.6851   -0.0090 H   0  0  0  0  0  0  0  0  0  0  0  0
  1  2  2  0
  2  3  1  0
  3  4  2  0
  4  5  1  0
  5  6  2  0
  6  7  1  0
  7  8  2  0
  8  9  1  0
  9 10  2  0
 10 11  1  0
 11 12  2  0
 12 13  1  0
 13 14  2  0
 14 15  1  0
 15 16  2  0
 16 17  1  0
 17 18  2  0
 18 19  1  0
 19 20  2  0
 20 21  1  0
 21 22  2  0
 16 23  1  0
 12 24  1  0
 24 25  2  0
  8 26  1  0
  4 27  1  0
 27 28  2  0
 28  1  1  0
 26  5  1  0
 25  9  1  0
 23 13  1  0
 22 17  1  0
  1 29  1  0
  2 30  1  0
  3 31  1  0
  6 32  1  0
 10 33  1  0
 11 34  1  0
 15 35  1  0
 18 36  1  0
 19 37  1  0
 20 38  1  0
 21 39  1  0
 22 40  1  0
 24 41  1  0
 25 42  1  0
 27 43  1  0
 28 44  1  0
M  END
