
     RDKit          3D

 65 71  0  0  0  0  0  0  0  0999 V2000
    3.5498   -3.7134   -2.1243 C   0  0  0  0  0  0  0  0  0  0  0  0
    3.1731   -2.4028   -1.5462 C   0  0  0  0  0  0  0  0  0  0  0  0
    4.0712   -1.5304   -1.0410 C   0  0  0  0  0  0  0  0  0  0  0  0
    3.6951   -0.2763   -0.4769 C   0  0  0  0  0  0  0  0  0  0  0  0
    4.6402    0.3046    0.3934 C   0  0  0  0  0  0  0  0  0  0  0  0
    5.4955    0.8455    1.1885 C   0  0  0  0  0  0  0  0  0  0  0  0
    6.4129    1.4401    2.0384 C   0  0  0  0  0  0  0  0  0  0  0  0
    6.0200    2.1068    3.2074 C   0  0  0  0  0  0  0  0  0  0  0  0
    6.8914    2.7191    4.0695 C   0  0  0  0  0  0  0  0  0  0  0  0
    8.2226    2.6826    3.7813 C   0  0  0  0  0  0  0  0  0  0  0  0
    8.6873    2.0504    2.6569 C   0  0  0  0  0  0  0  0  0  0  0  0
    7.7857    1.4294    1.7837 C   0  0  0  0  0  0  0  0  0  0  0  0
    2.3798    0.0841   -0.4547 C   0  0  0  0  0  0  0  0  0  0  0  0
    1.9692    1.3144    0.0578 C   0  0  0  0  0  0  0  0  0  0  0  0
    0.6349    1.6513    0.0611 C   0  0  0  0  0  0  0  0  0  0  0  0
   -0.2975    0.7431   -0.4391 C   0  0  0  0  0  0  0  0  0  0  0  0
   -1.5801    0.9844   -0.3437 C   0  0  0  0  0  0  0  0  0  0  0  0
   -2.2359    2.2397    0.0821 C   0  0  0  0  0  0  0  0  0  0  0  0
   -2.7352    3.2363    0.4228 C   0  0  0  0  0  0  0  0  0  0  0  0
   -3.3700    4.4740    0.8362 C   0  0  0  0  0  0  0  0  0  0  0  0
   -4.0900    4.5744    2.0066 C   0  0  0  0  0  0  0  0  0  0  0  0
   -4.6979    5.7783    2.3717 C   0  0  0  0  0  0  0  0  0  0  0  0
   -4.5699    6.8674    1.5522 C   0  0  0  0  0  0  0  0  0  0  0  0
   -3.8317    6.7349    0.3623 C   0  0  0  0  0  0  0  0  0  0  0  0
   -3.2334    5.5648   -0.0121 C   0  0  0  0  0  0  0  0  0  0  0  0
   -2.5368    0.0227   -0.7221 C   0  0  0  0  0  0  0  0  0  0  0  0
   -2.1413   -1.2098   -1.2058 C   0  0  0  0  0  0  0  0  0  0  0  0
   -3.1651   -2.2295   -1.3204 C   0  0  0  0  0  0  0  0  0  0  0  0
   -4.0089   -3.0685   -1.4015 C   0  0  0  0  0  0  0  0  0  0  0  0
   -5.0491   -4.1086   -1.5273 C   0  0  0  0  0  0  0  0  0  0  0  0
   -5.8500   -4.2018   -2.6100 C   0  0  0  0  0  0  0  0  0  0  0  0
   -6.7749   -5.2338   -2.7409 C   0  0  0  0  0  0  0  0  0  0  0  0
   -6.8378   -6.1654   -1.7092 C   0  0  0  0  0  0  0  0  0  0  0  0
   -6.0392   -6.0904   -0.6087 C   0  0  0  0  0  0  0  0  0  0  0  0
   -5.1195   -5.0423   -0.4953 C   0  0  0  0  0  0  0  0  0  0  0  0
   -0.7971   -1.4503   -1.3205 C   0  0  0  0  0  0  0  0  0  0  0  0
   -0.4064   -2.6673   -1.8130 C   0  0  0  0  0  0  0  0  0  0  0  0
    0.8974   -2.9957   -1.9315 C   0  0  0  0  0  0  0  0  0  0  0  0
    1.8418   -2.0511   -1.5065 C   0  0  0  0  0  0  0  0  0  0  0  0
    1.4645   -0.8384   -0.9779 C   0  0  0  0  0  0  0  0  0  0  0  0
    0.1425   -0.4870   -0.9433 C   0  0  0  0  0  0  0  0  0  0  0  0
    2.9791   -4.4731   -1.5174 H   0  0  0  0  0  0  0  0  0  0  0  0
    3.1786   -3.7928   -3.1885 H   0  0  0  0  0  0  0  0  0  0  0  0
    4.6220   -3.9514   -2.0077 H   0  0  0  0  0  0  0  0  0  0  0  0
    5.1191   -1.7527   -1.0448 H   0  0  0  0  0  0  0  0  0  0  0  0
    4.9317    2.1051    3.3868 H   0  0  0  0  0  0  0  0  0  0  0  0
    6.4642    3.1987    4.9464 H   0  0  0  0  0  0  0  0  0  0  0  0
    8.9164    3.1851    4.4898 H   0  0  0  0  0  0  0  0  0  0  0  0
    9.7522    2.0145    2.4168 H   0  0  0  0  0  0  0  0  0  0  0  0
    8.0917    0.9222    0.8888 H   0  0  0  0  0  0  0  0  0  0  0  0
    2.7132    1.9883    0.4423 H   0  0  0  0  0  0  0  0  0  0  0  0
    0.2719    2.5907    0.4450 H   0  0  0  0  0  0  0  0  0  0  0  0
   -4.2011    3.6969    2.6622 H   0  0  0  0  0  0  0  0  0  0  0  0
   -5.2716    5.8382    3.2715 H   0  0  0  0  0  0  0  0  0  0  0  0
   -5.0079    7.8420    1.7664 H   0  0  0  0  0  0  0  0  0  0  0  0
   -3.7402    7.6153   -0.2679 H   0  0  0  0  0  0  0  0  0  0  0  0
   -2.6512    5.4691   -0.9408 H   0  0  0  0  0  0  0  0  0  0  0  0
   -3.5640    0.2195   -0.6357 H   0  0  0  0  0  0  0  0  0  0  0  0
   -5.7714   -3.4498   -3.3984 H   0  0  0  0  0  0  0  0  0  0  0  0
   -7.3985   -5.2930   -3.6015 H   0  0  0  0  0  0  0  0  0  0  0  0
   -7.5681   -6.9967   -1.8036 H   0  0  0  0  0  0  0  0  0  0  0  0
   -6.0763   -6.8082    0.2077 H   0  0  0  0  0  0  0  0  0  0  0  0
   -4.4747   -4.9229    0.3405 H   0  0  0  0  0  0  0  0  0  0  0  0
   -1.1620   -3.3937   -2.1154 H   0  0  0  0  0  0  0  0  0  0  0  0
    1.2393   -3.9365   -2.3427 H   0  0  0  0  0  0  0  0  0  0  0  0
  1  2  1  0
  2  3  2  0
  3  4  1  0
  4  5  1  0
  5  6  3  0
  6  7  1  0
  7  8  2  0
  8  9  1  0
  9 10  2  0
 10 11  1  0
 11 12  2  0
  4 13  2  0
 13 14  1  0
 14 15  2  0
 15 16  1  0
 16 17  2  0
 17 18  1  0
 18 19  3  0
 19 20  1  0
 20 21  2  0
 21 22  1  0
 22 23  2  0
 23 24  1  0
 24 25  2  0
 17 26  1  0
 26 27  2  0
 27 28  1  0
 28 29  3  0
 29 30  1  0
 30 31  2  0
 31 32  1  0
 32 33  2  0
 33 34  1  0
 34 35  2  0
 27 36  1  0
 36 37  2  0
 37 38  1  0
 38 39  2  0
 39 40  1  0
 40 41  2  0
 39  2  1  0
 12  7  1  0
 40 13  1  0
 41 16  1  0
 25 20  1  0
 35 30  1  0
 41 36  1  0
  1 42  1  0
  1 43  1  0
  1 44  1  0
  3 45  1  0
  8 46  1  0
  9 47  1  0
 10 48  1  0
 11 49  1  0
 12 50  1  0
 14 51  1  0
 15 52  1  0
 21 53  1  0
 22 54  1  0
 23 55  1  0
 24 56  1  0
 25 57  1  0
 26 58  1  0
 31 59  1  0
 32 60  1  0
 33 61  1  0
 34 62  1  0
 35 63  1  0
 37 64  1  0
 38 65  1  0
M  END
