
     RDKit          3D

 24 25  0  0  0  0  0  0  0  0999 V2000
    4.0674   -0.6345    0.3127 C   0  0  0  0  0  0  0  0  0  0  0  0
    2.9909    0.0478   -0.3344 O   0  0  0  0  0  0  0  0  0  0  0  0
    1.6903   -0.4067   -0.1994 C   0  0  0  0  0  0  0  0  0  0  0  0
    1.5084   -1.4290    0.5068 O   0  0  0  0  0  0  0  0  0  0  0  0
    0.5390    0.2545   -0.8424 C   0  0  0  0  0  0  0  0  0  0  0  0
    0.3134    1.6466   -0.3754 C   0  0  0  0  0  0  0  0  0  0  0  0
   -1.0273    1.6668    0.1893 C   0  0  0  0  0  0  0  0  0  0  0  0
   -1.6675    2.8247    0.7663 C   0  0  0  0  0  0  0  0  0  0  0  0
   -2.2015    3.7507    1.2398 N   0  0  0  0  0  0  0  0  0  0  0  0
   -1.5706    0.4669    0.0946 C   0  0  0  0  0  0  0  0  0  0  0  0
   -2.8708   -0.0822    0.4898 C   0  0  0  0  0  0  0  0  0  0  0  0
   -3.1259   -1.3554    0.2552 C   0  0  0  0  0  0  0  0  0  0  0  0
   -2.1463   -2.1935   -0.3778 C   0  0  0  0  0  0  0  0  0  0  0  0
   -1.0049   -1.7887   -0.7456 N   0  0  0  0  0  0  0  0  0  0  0  0
   -0.6673   -0.4360   -0.5241 N   0  0  0  0  0  0  0  0  0  0  0  0
    4.1044   -0.3773    1.4003 H   0  0  0  0  0  0  0  0  0  0  0  0
    4.0175   -1.7224    0.1423 H   0  0  0  0  0  0  0  0  0  0  0  0
    5.0340   -0.2890   -0.1140 H   0  0  0  0  0  0  0  0  0  0  0  0
    0.6544    0.2097   -1.9561 H   0  0  0  0  0  0  0  0  0  0  0  0
    0.3525    2.3215   -1.2647 H   0  0  0  0  0  0  0  0  0  0  0  0
    1.0889    1.9300    0.3690 H   0  0  0  0  0  0  0  0  0  0  0  0
   -3.5802    0.5906    0.9660 H   0  0  0  0  0  0  0  0  0  0  0  0
   -4.1036   -1.7645    0.5535 H   0  0  0  0  0  0  0  0  0  0  0  0
   -2.3954   -3.2308   -0.5517 H   0  0  0  0  0  0  0  0  0  0  0  0
  1  2  1  0
  2  3  1  0
  3  4  2  0
  3  5  1  0
  5  6  1  0
  6  7  1  0
  7  8  1  0
  8  9  3  0
  7 10  2  0
 10 11  1  0
 11 12  2  0
 12 13  1  0
 13 14  2  0
 14 15  1  0
 15  5  1  0
 15 10  1  0
  1 16  1  0
  1 17  1  0
  1 18  1  0
  5 19  1  0
  6 20  1  0
  6 21  1  0
 11 22  1  0
 12 23  1  0
 13 24  1  0
M  END
