
     RDKit          3D

 78 86  0  0  0  0  0  0  0  0999 V2000
   -2.8555   -4.2714   -4.7829 N   0  0  0  0  0  0  0  0  0  0  0  0
   -2.2005   -3.5167   -4.2004 C   0  0  0  0  0  0  0  0  0  0  0  0
   -1.3534   -2.5691   -3.4782 C   0  0  0  0  0  0  0  0  0  0  0  0
   -1.1300   -2.5889   -2.1875 N   0  0  0  0  0  0  0  0  0  0  0  0
   -0.4428   -1.6184   -1.5850 C   0  0  0  0  0  0  0  0  0  0  0  0
    0.0909   -0.5159   -2.2881 C   0  0  0  0  0  0  0  0  0  0  0  0
   -0.0712   -0.4459   -3.6040 N   0  0  0  0  0  0  0  0  0  0  0  0
   -0.7950   -1.4468   -4.2592 C   0  0  0  0  0  0  0  0  0  0  0  0
   -1.0665   -1.3685   -5.4984 C   0  0  0  0  0  0  0  0  0  0  0  0
   -1.3686   -1.3034   -6.8882 N   0  0  0  0  0  0  0  0  0  0  0  0
    0.4438    0.7002   -1.4179 C   0  0  0  0  0  0  0  0  0  0  0  0
   -0.8211    0.7888   -0.5577 C   0  0  0  0  0  0  0  0  0  0  0  0
   -1.6909    1.8984   -0.4656 C   0  0  0  0  0  0  0  0  0  0  0  0
   -2.8342    1.6536    0.2611 C   0  0  0  0  0  0  0  0  0  0  0  0
   -3.2278    0.5362    0.8747 C   0  0  0  0  0  0  0  0  0  0  0  0
   -4.5894    0.2645    1.4212 N   0  0  0  0  0  0  0  0  0  0  0  0
   -5.5660    0.8497    0.5272 C   0  0  0  0  0  0  0  0  0  0  0  0
   -6.3836    1.8140    0.4604 C   0  0  0  0  0  0  0  0  0  0  0  0
   -7.2274    2.3874   -0.4310 C   0  0  0  0  0  0  0  0  0  0  0  0
   -7.1367    1.5896   -1.7991 C   0  0  0  0  0  0  0  0  0  0  0  0
   -6.2788    0.6186   -1.6437 C   0  0  0  0  0  0  0  0  0  0  0  0
   -5.4591    0.0391   -0.8184 C   0  0  0  0  0  0  0  0  0  0  0  0
   -4.9014   -0.7887    2.2496 C   0  0  0  0  0  0  0  0  0  0  0  0
   -4.3321   -1.3980    3.2304 C   0  0  0  0  0  0  0  0  0  0  0  0
   -4.7883   -2.4460    3.9878 C   0  0  0  0  0  0  0  0  0  0  0  0
   -6.0628   -2.9480    3.6883 C   0  0  0  0  0  0  0  0  0  0  0  0
   -6.7028   -2.3566    2.6820 C   0  0  0  0  0  0  0  0  0  0  0  0
   -6.3117   -1.3198    1.8871 C   0  0  0  0  0  0  0  0  0  0  0  0
   -2.3799   -0.5671    0.8012 C   0  0  0  0  0  0  0  0  0  0  0  0
   -1.2303   -0.4462    0.1130 C   0  0  0  0  0  0  0  0  0  0  0  0
   -0.3244   -1.5723   -0.0717 C   0  0  0  0  0  0  0  0  0  0  0  0
    1.0445   -1.0231    0.2060 C   0  0  0  0  0  0  0  0  0  0  0  0
    1.9206   -1.5649    1.0672 C   0  0  0  0  0  0  0  0  0  0  0  0
    3.1890   -0.9880    1.2060 C   0  0  0  0  0  0  0  0  0  0  0  0
    3.6155    0.1077    0.5198 C   0  0  0  0  0  0  0  0  0  0  0  0
    4.9125    0.6399    0.4981 N   0  0  0  0  0  0  0  0  0  0  0  0
    5.1555    2.0408    0.5196 C   0  0  0  0  0  0  0  0  0  0  0  0
    6.0503    2.5162   -0.4598 C   0  0  0  0  0  0  0  0  0  0  0  0
    6.3303    3.8348   -0.5129 C   0  0  0  0  0  0  0  0  0  0  0  0
    5.7453    4.7220    0.3752 C   0  0  0  0  0  0  0  0  0  0  0  0
    4.8635    4.2954    1.3411 C   0  0  0  0  0  0  0  0  0  0  0  0
    4.5977    2.8872    1.3725 C   0  0  0  0  0  0  0  0  0  0  0  0
    6.0464   -0.1976    0.4580 C   0  0  0  0  0  0  0  0  0  0  0  0
    7.1996    0.0056    1.2184 C   0  0  0  0  0  0  0  0  0  0  0  0
    8.2541   -0.8797    1.0991 C   0  0  0  0  0  0  0  0  0  0  0  0
    8.1673   -1.9378    0.2401 C   0  0  0  0  0  0  0  0  0  0  0  0
    7.0798   -2.2213   -0.5563 C   0  0  0  0  0  0  0  0  0  0  0  0
    6.0280   -1.2943   -0.3978 C   0  0  0  0  0  0  0  0  0  0  0  0
    2.6856    0.6573   -0.3722 C   0  0  0  0  0  0  0  0  0  0  0  0
    1.4386    0.1073   -0.5228 C   0  0  0  0  0  0  0  0  0  0  0  0
    0.6692    1.5881   -1.9196 H   0  0  0  0  0  0  0  0  0  0  0  0
   -1.4081    2.7957   -0.9492 H   0  0  0  0  0  0  0  0  0  0  0  0
   -3.4841    2.5468    0.3557 H   0  0  0  0  0  0  0  0  0  0  0  0
   -6.4957    2.4509    1.4699 H   0  0  0  0  0  0  0  0  0  0  0  0
   -7.8512    3.1785   -0.4754 H   0  0  0  0  0  0  0  0  0  0  0  0
   -7.7831    2.0276   -2.4463 H   0  0  0  0  0  0  0  0  0  0  0  0
   -6.2326    0.0198   -2.7317 H   0  0  0  0  0  0  0  0  0  0  0  0
   -4.8399   -0.7687   -0.7998 H   0  0  0  0  0  0  0  0  0  0  0  0
   -3.3140   -1.0044    3.5372 H   0  0  0  0  0  0  0  0  0  0  0  0
   -4.2526   -2.9147    4.7873 H   0  0  0  0  0  0  0  0  0  0  0  0
   -6.5039   -3.7415    4.2527 H   0  0  0  0  0  0  0  0  0  0  0  0
   -7.7678   -2.7692    2.4565 H   0  0  0  0  0  0  0  0  0  0  0  0
   -6.7785   -0.8837    1.1215 H   0  0  0  0  0  0  0  0  0  0  0  0
   -2.6843   -1.4623    1.2959 H   0  0  0  0  0  0  0  0  0  0  0  0
   -0.5678   -2.5334    0.3572 H   0  0  0  0  0  0  0  0  0  0  0  0
    1.6537   -2.4349    1.6031 H   0  0  0  0  0  0  0  0  0  0  0  0
    3.8559   -1.4528    1.9353 H   0  0  0  0  0  0  0  0  0  0  0  0
    6.5521    1.8308   -1.1946 H   0  0  0  0  0  0  0  0  0  0  0  0
    7.0655    4.2986   -1.2148 H   0  0  0  0  0  0  0  0  0  0  0  0
    5.9631    5.8128    0.3118 H   0  0  0  0  0  0  0  0  0  0  0  0
    4.3979    4.9714    1.9806 H   0  0  0  0  0  0  0  0  0  0  0  0
    3.9378    2.6185    2.2049 H   0  0  0  0  0  0  0  0  0  0  0  0
    7.2468    0.8374    1.9149 H   0  0  0  0  0  0  0  0  0  0  0  0
    9.1572   -0.7282    1.6553 H   0  0  0  0  0  0  0  0  0  0  0  0
    9.0317   -2.6150    0.1292 H   0  0  0  0  0  0  0  0  0  0  0  0
    6.9823   -3.0422   -1.2358 H   0  0  0  0  0  0  0  0  0  0  0  0
    5.1722   -1.5463   -0.9993 H   0  0  0  0  0  0  0  0  0  0  0  0
    2.9517    1.5610   -0.9095 H   0  0  0  0  0  0  0  0  0  0  0  0
  1  2  3  0
  2  3  1  0
  3  4  2  0
  4  5  1  0
  5  6  2  0
  6  7  1  0
  7  8  2  0
  8  9  1  0
  9 10  3  0
  6 11  1  0
 11 12  1  0
 12 13  2  0
 13 14  1  0
 14 15  2  0
 15 16  1  0
 16 17  1  0
 17 18  2  0
 18 19  1  0
 19 20  2  0
 20 21  1  0
 21 22  2  0
 16 23  1  0
 23 24  2  0
 24 25  1  0
 25 26  2  0
 26 27  1  0
 27 28  2  0
 15 29  1  0
 29 30  2  0
 30 31  1  0
 31 32  1  0
 32 33  2  0
 33 34  1  0
 34 35  2  0
 35 36  1  0
 36 37  1  0
 37 38  2  0
 38 39  1  0
 39 40  2  0
 40 41  1  0
 41 42  2  0
 36 43  1  0
 43 44  2  0
 44 45  1  0
 45 46  2  0
 46 47  1  0
 47 48  2  0
 35 49  1  0
 49 50  2  0
  8  3  1  0
 50 11  1  0
 31  5  1  0
 50 32  1  0
 30 12  1  0
 42 37  1  0
 48 43  1  0
 22 17  1  0
 28 23  1  0
 11 51  1  0
 13 52  1  0
 14 53  1  0
 18 54  1  0
 19 55  1  0
 20 56  1  0
 21 57  1  0
 22 58  1  0
 24 59  1  0
 25 60  1  0
 26 61  1  0
 27 62  1  0
 28 63  1  0
 29 64  1  0
 31 65  1  0
 33 66  1  0
 34 67  1  0
 38 68  1  0
 39 69  1  0
 40 70  1  0
 41 71  1  0
 42 72  1  0
 44 73  1  0
 45 74  1  0
 46 75  1  0
 47 76  1  0
 48 77  1  0
 49 78  1  0
M  END
