
     RDKit          3D

 42 45  0  0  0  0  0  0  0  0999 V2000
    6.6789   -1.4553   -0.4145 C   0  0  0  0  0  0  0  0  0  0  0  0
    6.0950   -0.1817   -0.0680 N   0  0  0  0  0  0  0  0  0  0  0  0
    6.9305    0.9543    0.2296 C   0  0  0  0  0  0  0  0  0  0  0  0
    4.6865   -0.0645   -0.0246 C   0  0  0  0  0  0  0  0  0  0  0  0
    4.1201    1.1469    0.3049 C   0  0  0  0  0  0  0  0  0  0  0  0
    2.7440    1.2280    0.3383 C   0  0  0  0  0  0  0  0  0  0  0  0
    1.9137    0.1629    0.0599 C   0  0  0  0  0  0  0  0  0  0  0  0
    0.4642    0.2738    0.1018 C   0  0  0  0  0  0  0  0  0  0  0  0
   -0.0656    1.3960    0.4069 N   0  0  0  0  0  0  0  0  0  0  0  0
   -1.5051    1.5706    0.4745 C   0  0  0  0  0  0  0  0  0  0  0  0
   -2.4033    3.0062    0.6884 S   0  0  0  0  0  0  0  0  0  0  0  0
   -3.9436    2.3539    0.4787 C   0  0  0  0  0  0  0  0  0  0  0  0
   -3.6954    0.9977    0.2447 C   0  0  0  0  0  0  0  0  0  0  0  0
   -4.9065    0.1752   -0.0921 C   0  0  0  0  0  0  0  0  0  0  0  0
   -6.0455    0.8033   -0.6168 C   0  0  0  0  0  0  0  0  0  0  0  0
   -7.2277    0.1745   -0.8943 C   0  0  0  0  0  0  0  0  0  0  0  0
   -7.3000   -1.1733   -0.6385 C   0  0  0  0  0  0  0  0  0  0  0  0
   -6.2281   -1.8236   -0.1315 C   0  0  0  0  0  0  0  0  0  0  0  0
   -5.0254   -1.1559    0.1463 C   0  0  0  0  0  0  0  0  0  0  0  0
   -2.4182    0.6341    0.2534 N   0  0  0  0  0  4  0  0  0  0  0  0
   -1.8416   -0.8205    0.0747 B   0  0  0  0  0  4  0  0  0  0  0  0
   -2.4246   -1.5159   -1.0196 F   0  0  0  0  0  0  0  0  0  0  0  0
   -2.0147   -1.5732    1.3324 F   0  0  0  0  0  0  0  0  0  0  0  0
   -0.4035   -0.7285   -0.1679 O   0  0  0  0  0  0  0  0  0  0  0  0
    2.4890   -1.0601   -0.2728 C   0  0  0  0  0  0  0  0  0  0  0  0
    3.8600   -1.1476   -0.3079 C   0  0  0  0  0  0  0  0  0  0  0  0
    7.7802   -1.4644   -0.2664 H   0  0  0  0  0  0  0  0  0  0  0  0
    6.2474   -2.2292    0.2543 H   0  0  0  0  0  0  0  0  0  0  0  0
    6.5063   -1.7134   -1.4942 H   0  0  0  0  0  0  0  0  0  0  0  0
    6.6051    1.4757    1.1731 H   0  0  0  0  0  0  0  0  0  0  0  0
    7.9881    0.6924    0.3543 H   0  0  0  0  0  0  0  0  0  0  0  0
    6.8833    1.7036   -0.6122 H   0  0  0  0  0  0  0  0  0  0  0  0
    4.7450    2.0132    0.5318 H   0  0  0  0  0  0  0  0  0  0  0  0
    2.3071    2.1749    0.5958 H   0  0  0  0  0  0  0  0  0  0  0  0
   -4.9348    2.8606    0.5231 H   0  0  0  0  0  0  0  0  0  0  0  0
   -5.9950    1.8866   -0.8373 H   0  0  0  0  0  0  0  0  0  0  0  0
   -8.0832    0.7276   -1.3051 H   0  0  0  0  0  0  0  0  0  0  0  0
   -8.2372   -1.6717   -0.8597 H   0  0  0  0  0  0  0  0  0  0  0  0
   -6.2873   -2.8957    0.0713 H   0  0  0  0  0  0  0  0  0  0  0  0
   -4.2500   -1.7515    0.5874 H   0  0  0  0  0  0  0  0  0  0  0  0
    1.8458   -1.9088   -0.4949 H   0  0  0  0  0  0  0  0  0  0  0  0
    4.3462   -2.0771   -0.5612 H   0  0  0  0  0  0  0  0  0  0  0  0
  1  2  1  0
  2  3  1  0
  2  4  1  0
  4  5  2  0
  5  6  1  0
  6  7  2  0
  7  8  1  0
  8  9  2  0
  9 10  1  0
 10 11  1  0
 11 12  1  0
 12 13  2  0
 13 14  1  0
 14 15  2  0
 15 16  1  0
 16 17  2  0
 17 18  1  0
 18 19  2  0
 13 20  1  0
 20 21  1  0
 21 22  1  0
 21 23  1  0
 21 24  1  0
  7 25  1  0
 25 26  2  0
 26  4  1  0
 24  8  1  0
 20 10  2  0
 19 14  1  0
  1 27  1  0
  1 28  1  0
  1 29  1  0
  3 30  1  0
  3 31  1  0
  3 32  1  0
  5 33  1  0
  6 34  1  0
 12 35  1  0
 15 36  1  0
 16 37  1  0
 17 38  1  0
 18 39  1  0
 19 40  1  0
 25 41  1  0
 26 42  1  0
M  CHG  2  20   1  21  -1
M  END
