
     RDKit          3D

 43 47  0  0  0  0  0  0  0  0999 V2000
   -3.5160    0.3274    0.7199 O   0  0  0  0  0  0  0  0  0  0  0  0
   -2.6474    1.2312    0.6145 C   0  0  0  0  0  0  0  0  0  0  0  0
   -3.1132    2.6384    0.6692 C   0  0  0  0  0  0  0  0  0  0  0  0
   -1.9154    3.5686    0.8398 C   0  0  0  0  0  0  0  0  0  0  0  0
   -0.9318    3.1985   -0.2511 C   0  0  0  0  0  0  0  0  0  0  0  0
   -0.4124    1.8322    0.0323 C   0  0  0  0  0  0  0  0  0  0  0  0
   -1.2141    0.8924    0.4423 C   0  0  0  0  0  0  0  0  0  0  0  0
   -0.7280   -0.4592    0.7249 C   0  0  0  0  0  0  0  0  0  0  0  0
   -1.5555   -1.5042    0.0663 C   0  0  0  0  0  0  0  0  0  0  0  0
   -2.1835   -2.4643    0.8151 C   0  0  0  0  0  0  0  0  0  0  0  0
   -2.9537   -3.4502    0.2336 C   0  0  0  0  0  0  0  0  0  0  0  0
   -3.1157   -3.4957   -1.1520 C   0  0  0  0  0  0  0  0  0  0  0  0
   -2.4750   -2.5167   -1.9090 C   0  0  0  0  0  0  0  0  0  0  0  0
   -1.7016   -1.5282   -1.3158 C   0  0  0  0  0  0  0  0  0  0  0  0
    0.7002   -0.6508    0.5219 C   0  0  0  0  0  0  0  0  0  0  0  0
    1.5294    0.3480    0.0902 C   0  0  0  0  0  0  0  0  0  0  0  0
    2.8888    0.0804   -0.0814 C   0  0  0  0  0  0  0  0  0  0  0  0
    3.7166    1.0595   -0.5075 C   0  0  0  0  0  0  0  0  0  0  0  0
    5.0757    0.7408   -0.6647 C   0  0  0  0  0  0  0  0  0  0  0  0
    5.5486   -0.5256   -0.3940 C   0  0  0  0  0  0  0  0  0  0  0  0
    4.6831   -1.5116    0.0409 C   0  0  0  0  0  0  0  0  0  0  0  0
    3.3366   -1.2133    0.2015 C   0  0  0  0  0  0  0  0  0  0  0  0
    2.5161   -2.1499    0.6143 O   0  0  0  0  0  0  0  0  0  0  0  0
    1.2676   -1.8962    0.7696 C   0  0  0  0  0  0  0  0  0  0  0  0
    0.5072   -2.8087    1.1648 O   0  0  0  0  0  0  0  0  0  0  0  0
    0.9985    1.6281   -0.1702 N   0  0  0  0  0  0  0  0  0  0  0  0
   -3.5905    2.9558   -0.3031 H   0  0  0  0  0  0  0  0  0  0  0  0
   -3.7856    2.8336    1.5336 H   0  0  0  0  0  0  0  0  0  0  0  0
   -1.4675    3.3353    1.8468 H   0  0  0  0  0  0  0  0  0  0  0  0
   -2.2582    4.6075    0.7585 H   0  0  0  0  0  0  0  0  0  0  0  0
   -1.4538    3.1704   -1.2233 H   0  0  0  0  0  0  0  0  0  0  0  0
   -0.1295    3.9432   -0.2530 H   0  0  0  0  0  0  0  0  0  0  0  0
   -0.9061   -0.5986    1.8471 H   0  0  0  0  0  0  0  0  0  0  0  0
   -2.0985   -2.4777    1.8922 H   0  0  0  0  0  0  0  0  0  0  0  0
   -3.4635   -4.2240    0.7951 H   0  0  0  0  0  0  0  0  0  0  0  0
   -3.7186   -4.2664   -1.6159 H   0  0  0  0  0  0  0  0  0  0  0  0
   -2.5675   -2.5044   -2.9987 H   0  0  0  0  0  0  0  0  0  0  0  0
   -1.2087   -0.7709   -1.9303 H   0  0  0  0  0  0  0  0  0  0  0  0
    3.4066    2.0600   -0.7330 H   0  0  0  0  0  0  0  0  0  0  0  0
    5.7629    1.5013   -1.0036 H   0  0  0  0  0  0  0  0  0  0  0  0
    6.5855   -0.8135   -0.5013 H   0  0  0  0  0  0  0  0  0  0  0  0
    4.9958   -2.5233    0.2690 H   0  0  0  0  0  0  0  0  0  0  0  0
    1.5921    2.4011   -0.4955 H   0  0  0  0  0  0  0  0  0  0  0  0
  1  2  2  0
  2  3  1  0
  3  4  1  0
  4  5  1  0
  5  6  1  0
  6  7  2  0
  7  8  1  0
  8  9  1  0
  9 10  2  0
 10 11  1  0
 11 12  2  0
 12 13  1  0
 13 14  2  0
  8 15  1  0
 15 16  2  0
 16 17  1  0
 17 18  2  0
 18 19  1  0
 19 20  2  0
 20 21  1  0
 21 22  2  0
 22 23  1  0
 23 24  1  0
 24 25  2  0
 16 26  1  0
  7  2  1  0
 14  9  1  0
 24 15  1  0
 26  6  1  0
 22 17  1  0
  3 27  1  0
  3 28  1  0
  4 29  1  0
  4 30  1  0
  5 31  1  0
  5 32  1  0
  8 33  1  0
 10 34  1  0
 11 35  1  0
 12 36  1  0
 13 37  1  0
 14 38  1  0
 18 39  1  0
 19 40  1  0
 20 41  1  0
 21 42  1  0
 26 43  1  0
M  END
