
     RDKit          3D

 76 83  0  0  0  0  0  0  0  0999 V2000
   -8.6246    3.4678   -1.1972 C   0  0  0  0  0  0  0  0  0  0  0  0
   -7.7560    2.2840   -1.0356 C   0  0  0  0  0  0  0  0  0  0  0  0
   -6.4823    2.1462   -0.8621 C   0  0  0  0  0  0  0  0  0  0  0  0
   -5.9240    0.7896   -0.7360 C   0  0  2  0  0  0  0  0  0  0  0  0
   -5.6990    0.3633   -2.2323 C   0  0  0  0  0  0  0  0  0  0  0  0
   -6.9886   -0.1145   -0.2944 C   0  0  0  0  0  0  0  0  0  0  0  0
   -6.7523   -1.1208    0.4749 C   0  0  0  0  0  0  0  0  0  0  0  0
   -5.3838   -1.4119    0.9739 C   0  0  0  0  0  0  0  0  0  0  0  0
   -4.3953   -0.6081    0.6406 C   0  0  0  0  0  0  0  0  0  0  0  0
   -2.9724   -0.6886    0.9878 C   0  0  0  0  0  0  0  0  0  0  0  0
   -2.4709   -1.1865    2.3038 C   0  0  0  0  0  0  0  0  0  0  0  0
   -2.1457   -0.2749    0.0418 C   0  0  0  0  0  0  0  0  0  0  0  0
   -0.6917   -0.2043    0.0005 C   0  0  0  0  0  0  0  0  0  0  0  0
    0.0447    0.2624    1.0493 C   0  0  0  0  0  0  0  0  0  0  0  0
    1.4291    0.2879    0.9514 C   0  0  0  0  0  0  0  0  0  0  0  0
    2.1012   -0.1342   -0.1517 C   0  0  0  0  0  0  0  0  0  0  0  0
    3.5652   -0.0707   -0.1844 C   0  0  0  0  0  0  0  0  0  0  0  0
    4.3518    0.4337    0.8008 N   0  0  0  0  0  0  0  0  0  0  0  0
    5.6380    0.3473    0.4455 C   0  0  0  0  0  0  0  0  0  0  0  0
    6.8260    0.7611    1.1629 C   0  0  0  0  0  0  0  0  0  0  0  0
    7.6400    1.7329    0.6186 C   0  0  0  0  0  0  0  0  0  0  0  0
    8.7810    2.1486    1.2900 C   0  0  0  0  0  0  0  0  0  0  0  0
    9.0839    1.5667    2.5175 C   0  0  0  0  0  0  0  0  0  0  0  0
    8.2879    0.5977    3.0775 C   0  0  0  0  0  0  0  0  0  0  0  0
    7.1454    0.1990    2.3786 C   0  0  0  0  0  0  0  0  0  0  0  0
    5.6943   -0.2364   -0.8195 C   0  0  0  0  0  0  0  0  0  0  0  0
    6.9142   -0.5279   -1.5859 C   0  0  0  0  0  0  0  0  0  0  0  0
    7.8320   -1.4365   -1.1201 C   0  0  0  0  0  0  0  0  0  0  0  0
    8.9802   -1.7035   -1.8423 C   0  0  0  0  0  0  0  0  0  0  0  0
    9.2563   -1.0785   -3.0506 C   0  0  0  0  0  0  0  0  0  0  0  0
    8.3208   -0.1646   -3.5075 C   0  0  0  0  0  0  0  0  0  0  0  0
    7.1819    0.0953   -2.7832 C   0  0  0  0  0  0  0  0  0  0  0  0
    4.4113   -0.4670   -1.1500 N   0  0  0  0  0  0  0  0  0  0  0  0
    1.3712   -0.6087   -1.2209 C   0  0  0  0  0  0  0  0  0  0  0  0
   -0.0144   -0.6372   -1.1302 C   0  0  0  0  0  0  0  0  0  0  0  0
   -3.2399    0.3424   -1.3033 S   0  0  0  0  0  0  0  0  0  0  0  0
   -4.6359    0.6628   -0.1050 C   0  0  1  0  0  0  0  0  0  0  0  0
   -4.2311    1.8562    0.7566 C   0  0  0  0  0  0  0  0  0  0  0  0
   -5.5254   -2.6768    1.7703 C   0  0  0  0  0  0  0  0  0  0  0  0
   -5.7073   -2.4684    3.0967 F   0  0  0  0  0  0  0  0  0  0  0  0
   -4.5205   -3.5890    1.4681 F   0  0  0  0  0  0  0  0  0  0  0  0
   -6.7867   -3.3303    1.1628 C   0  0  0  0  0  0  0  0  0  0  0  0
   -6.3914   -3.7498   -0.1088 F   0  0  0  0  0  0  0  0  0  0  0  0
   -7.2573   -4.3482    1.9301 F   0  0  0  0  0  0  0  0  0  0  0  0
   -7.6819   -2.1476    1.0262 C   0  0  0  0  0  0  0  0  0  0  0  0
   -8.1086   -1.7941    2.3016 F   0  0  0  0  0  0  0  0  0  0  0  0
   -8.7617   -2.3768    0.2150 F   0  0  0  0  0  0  0  0  0  0  0  0
   -8.4470    0.5945   -1.0341 S   0  0  0  0  0  0  0  0  0  0  0  0
   -9.1106    3.4538   -2.2022 H   0  0  0  0  0  0  0  0  0  0  0  0
   -9.4586    3.3950   -0.4617 H   0  0  0  0  0  0  0  0  0  0  0  0
   -8.1064    4.4122   -0.9820 H   0  0  0  0  0  0  0  0  0  0  0  0
   -5.8097    3.0266   -0.8074 H   0  0  0  0  0  0  0  0  0  0  0  0
   -4.9298    1.0484   -2.6168 H   0  0  0  0  0  0  0  0  0  0  0  0
   -6.6594    0.4937   -2.7606 H   0  0  0  0  0  0  0  0  0  0  0  0
   -5.3360   -0.6745   -2.2430 H   0  0  0  0  0  0  0  0  0  0  0  0
   -1.4894   -1.6921    2.2023 H   0  0  0  0  0  0  0  0  0  0  0  0
   -3.1372   -1.8575    2.8331 H   0  0  0  0  0  0  0  0  0  0  0  0
   -2.2925   -0.3351    3.0313 H   0  0  0  0  0  0  0  0  0  0  0  0
   -0.4548    0.6098    1.9338 H   0  0  0  0  0  0  0  0  0  0  0  0
    1.9784    0.6637    1.8004 H   0  0  0  0  0  0  0  0  0  0  0  0
    7.4012    2.1827   -0.3359 H   0  0  0  0  0  0  0  0  0  0  0  0
    9.3933    2.9030    0.8441 H   0  0  0  0  0  0  0  0  0  0  0  0
    9.9677    1.9132    2.9997 H   0  0  0  0  0  0  0  0  0  0  0  0
    8.5824    0.1913    4.0285 H   0  0  0  0  0  0  0  0  0  0  0  0
    6.5477   -0.5644    2.8525 H   0  0  0  0  0  0  0  0  0  0  0  0
    7.6577   -1.9483   -0.1807 H   0  0  0  0  0  0  0  0  0  0  0  0
    9.7170   -2.4212   -1.4834 H   0  0  0  0  0  0  0  0  0  0  0  0
   10.1423   -1.2938   -3.5952 H   0  0  0  0  0  0  0  0  0  0  0  0
    8.5020    0.3467   -4.4518 H   0  0  0  0  0  0  0  0  0  0  0  0
    6.4804    0.8148   -3.1774 H   0  0  0  0  0  0  0  0  0  0  0  0
    4.0990   -0.9021   -2.0476 H   0  0  0  0  0  0  0  0  0  0  0  0
    1.9002   -0.9438   -2.0954 H   0  0  0  0  0  0  0  0  0  0  0  0
   -0.5570   -1.0109   -1.9751 H   0  0  0  0  0  0  0  0  0  0  0  0
   -5.0944    2.4270    1.1215 H   0  0  0  0  0  0  0  0  0  0  0  0
   -3.6580    1.5166    1.6436 H   0  0  0  0  0  0  0  0  0  0  0  0
   -3.5364    2.4614    0.1381 H   0  0  0  0  0  0  0  0  0  0  0  0
  1  2  1  0
  2  3  2  0
  3  4  1  0
  4  5  1  6
  4  6  1  0
  6  7  2  0
  7  8  1  0
  8  9  2  0
  9 10  1  0
 10 11  1  0
 10 12  2  0
 12 13  1  0
 13 14  2  0
 14 15  1  0
 15 16  2  0
 16 17  1  0
 17 18  2  0
 18 19  1  0
 19 20  1  0
 20 21  2  0
 21 22  1  0
 22 23  2  0
 23 24  1  0
 24 25  2  0
 19 26  2  0
 26 27  1  0
 27 28  2  0
 28 29  1  0
 29 30  2  0
 30 31  1  0
 31 32  2  0
 26 33  1  0
 16 34  1  0
 34 35  2  0
 12 36  1  0
 36 37  1  0
 37 38  1  1
  8 39  1  0
 39 40  1  0
 39 41  1  0
 39 42  1  0
 42 43  1  0
 42 44  1  0
 42 45  1  0
 45 46  1  0
 45 47  1  0
  6 48  1  0
 48  2  1  0
 37  4  1  0
 45  7  1  0
 37  9  1  0
 35 13  1  0
 33 17  1  0
 25 20  1  0
 32 27  1  0
  1 49  1  0
  1 50  1  0
  1 51  1  0
  3 52  1  0
  5 53  1  0
  5 54  1  0
  5 55  1  0
 11 56  1  0
 11 57  1  0
 11 58  1  0
 14 59  1  0
 15 60  1  0
 21 61  1  0
 22 62  1  0
 23 63  1  0
 24 64  1  0
 25 65  1  0
 28 66  1  0
 29 67  1  0
 30 68  1  0
 31 69  1  0
 32 70  1  0
 33 71  1  0
 34 72  1  0
 35 73  1  0
 38 74  1  0
 38 75  1  0
 38 76  1  0
M  END
