
 OpenBabel03022211393D

 34 38  0  0  0  0  0  0  0  0999 V2000
    3.9593   -1.4142    0.2179 C   0  0  0  0  0  0  0  0  0  0  0  0
    2.8679   -2.1580    0.6305 C   0  0  0  0  0  0  0  0  0  0  0  0
    1.5932   -1.5833    0.6154 C   0  0  0  0  0  0  0  0  0  0  0  0
    1.3404   -0.2778    0.1259 C   0  0  0  0  0  0  0  0  0  0  0  0
    2.4965    0.4994   -0.1313 C   0  0  0  0  0  0  0  0  0  0  0  0
    3.7781   -0.0791   -0.1268 C   0  0  0  0  0  0  0  0  0  0  0  0
    2.3654    1.8644   -0.3509 C   0  0  0  0  0  0  0  0  0  0  0  0
    1.1133    2.4592   -0.2700 C   0  0  0  0  0  0  0  0  0  0  0  0
   -0.0402    1.7158   -0.1070 C   0  0  0  0  0  0  0  0  0  0  0  0
   -1.1639    2.4268   -0.0150 N   0  0  0  0  0  0  0  0  0  0  0  0
   -2.3162    1.7621    0.1495 C   0  0  0  0  0  0  0  0  0  0  0  0
   -2.4421    0.3863    0.0950 C   0  0  0  0  0  0  0  0  0  0  0  0
   -3.7140   -0.1834    0.2374 C   0  0  0  0  0  0  0  0  0  0  0  0
   -3.8915   -1.5535    0.1259 C   0  0  0  0  0  0  0  0  0  0  0  0
   -2.8192   -2.3608   -0.2459 C   0  0  0  0  0  0  0  0  0  0  0  0
   -3.0069   -3.7303   -0.4588 C   0  0  0  0  0  0  0  0  0  0  0  0
   -2.0632   -4.5736   -0.9255 N   0  0  0  0  0  0  0  0  0  0  0  0
   -0.8916   -4.0111   -1.2565 C   0  0  0  0  0  0  0  0  0  0  0  0
   -0.6100   -2.6632   -1.0795 C   0  0  0  0  0  0  0  0  0  0  0  0
   -1.5388   -1.7956   -0.4613 C   0  0  0  0  0  0  0  0  0  0  0  0
   -1.2840   -0.3958   -0.1289 C   0  0  0  0  0  0  0  0  0  0  0  0
    0.0127    0.3024   -0.0438 C   0  0  0  0  0  0  0  0  0  0  0  0
    4.9526   -1.8538    0.2084 H   0  0  0  0  0  0  0  0  0  0  0  0
    2.9967   -3.1832    0.9681 H   0  0  0  0  0  0  0  0  0  0  0  0
    0.7776   -2.1823    1.0157 H   0  0  0  0  0  0  0  0  0  0  0  0
    4.6533    0.5171   -0.3773 H   0  0  0  0  0  0  0  0  0  0  0  0
    3.2368    2.4946   -0.5114 H   0  0  0  0  0  0  0  0  0  0  0  0
    1.0360    3.5420   -0.3494 H   0  0  0  0  0  0  0  0  0  0  0  0
   -3.1807    2.4087    0.2915 H   0  0  0  0  0  0  0  0  0  0  0  0
   -4.5842    0.4402    0.4372 H   0  0  0  0  0  0  0  0  0  0  0  0
   -4.8870   -1.9722    0.2572 H   0  0  0  0  0  0  0  0  0  0  0  0
   -3.9673   -4.2030   -0.2696 H   0  0  0  0  0  0  0  0  0  0  0  0
   -0.1539   -4.6823   -1.6867 H   0  0  0  0  0  0  0  0  0  0  0  0
    0.3412   -2.2974   -1.4510 H   0  0  0  0  0  0  0  0  0  0  0  0
  1  2  2  0  0  0  0
  1 23  1  0  0  0  0
  2  3  1  0  0  0  0
  2 24  1  0  0  0  0
  3  4  2  0  0  0  0
  3 25  1  0  0  0  0
  4  5  1  0  0  0  0
  5  6  2  0  0  0  0
  5  7  1  0  0  0  0
  6  1  1  0  0  0  0
  6 26  1  0  0  0  0
  7  8  2  0  0  0  0
  7 27  1  0  0  0  0
  8  9  1  0  0  0  0
  8 28  1  0  0  0  0
  9 10  2  0  0  0  0
 10 11  1  0  0  0  0
 11 12  2  0  0  0  0
 11 29  1  0  0  0  0
 12 13  1  0  0  0  0
 13 14  2  0  0  0  0
 13 30  1  0  0  0  0
 14 15  1  0  0  0  0
 14 31  1  0  0  0  0
 15 16  2  0  0  0  0
 16 17  1  0  0  0  0
 16 32  1  0  0  0  0
 17 18  2  0  0  0  0
 18 19  1  0  0  0  0
 18 33  1  0  0  0  0
 19 20  2  0  0  0  0
 19 34  1  0  0  0  0
 20 21  1  0  0  0  0
 20 15  1  0  0  0  0
 21 22  2  0  0  0  0
 21 12  1  0  0  0  0
 22  9  1  0  0  0  0
 22  4  1  0  0  0  0
M  END
