
     RDKit          3D

 82 90  0  0  0  0  0  0  0  0999 V2000
    6.3583    3.3351    1.8538 C   0  0  0  0  0  0  0  0  0  0  0  0
    5.8694    3.5013    0.4291 C   0  0  0  0  0  0  0  0  0  0  0  0
    6.9442    3.2442   -0.5559 C   0  0  0  0  0  0  0  0  0  0  0  0
    5.4030    4.9333    0.2147 C   0  0  0  0  0  0  0  0  0  0  0  0
    4.7095    2.5866    0.2182 C   0  0  0  0  0  0  0  0  0  0  0  0
    3.4190    3.0304   -0.0148 C   0  0  0  0  0  0  0  0  0  0  0  0
    2.3538    2.1575   -0.1932 C   0  0  0  0  0  0  0  0  0  0  0  0
    1.0891    2.6406   -0.3806 C   0  0  0  0  0  0  0  0  0  0  0  0
    0.0208    1.7904   -0.5529 C   0  0  0  0  0  0  0  0  0  0  0  0
    0.2536    0.4069   -0.5500 C   0  0  0  0  0  0  0  0  0  0  0  0
   -0.8005   -0.3967   -0.7393 C   0  0  0  0  0  0  0  0  0  0  0  0
   -2.2372   -0.2135   -0.7172 C   0  0  0  0  0  0  0  0  0  0  0  0
   -2.9945   -0.9628   -0.2502 C   0  0  0  0  0  0  0  0  0  0  0  0
   -4.3469   -1.2312    0.0506 C   0  0  0  0  0  0  0  0  0  0  0  0
   -5.0134   -0.0541   -0.4234 C   0  0  0  0  0  0  0  0  0  0  0  0
   -6.4119    0.1048   -0.2355 N   0  0  0  0  0  0  0  0  0  0  0  0
   -7.2398   -1.1007   -0.1650 C   0  0  0  0  0  0  0  0  0  0  0  0
   -6.6051   -1.9112    0.9558 C   0  0  0  0  0  0  0  0  0  0  0  0
   -7.0699   -3.1408    1.1669 C   0  0  0  0  0  0  0  0  0  0  0  0
   -8.1897   -3.6866    0.3405 C   0  0  0  0  0  0  0  0  0  0  0  0
   -8.7802   -2.9121   -0.6907 C   0  0  0  0  0  0  0  0  0  0  0  0
   -8.0459   -1.6406   -0.6730 C   0  0  0  0  0  0  0  0  0  0  0  0
   -7.0320    1.3708   -0.0677 C   0  0  0  0  0  0  0  0  0  0  0  0
   -6.9435    2.3005    0.6833 C   0  0  0  0  0  0  0  0  0  0  0  0
   -7.4016    3.6399    0.6487 C   0  0  0  0  0  0  0  0  0  0  0  0
   -8.0368    3.9070   -0.4089 C   0  0  0  0  0  0  0  0  0  0  0  0
   -8.2859    2.9607   -1.5192 C   0  0  0  0  0  0  0  0  0  0  0  0
   -7.7890    1.6793   -1.3670 C   0  0  0  0  0  0  0  0  0  0  0  0
   -4.2841    0.9823   -1.0135 C   0  0  0  0  0  0  0  0  0  0  0  0
   -2.8567    1.0446   -1.2305 C   0  0  0  0  0  0  0  0  0  0  0  0
   -0.4523   -1.8304   -0.7302 C   0  0  0  0  0  0  0  0  0  0  0  0
    0.7567   -2.1670   -0.5413 C   0  0  0  0  0  0  0  0  0  0  0  0
    1.9101   -1.4161   -0.3158 C   0  0  0  0  0  0  0  0  0  0  0  0
    3.1122   -1.8727   -0.0976 C   0  0  0  0  0  0  0  0  0  0  0  0
    3.4723   -3.1718   -0.0745 N   0  0  0  0  0  0  0  0  0  0  0  0
    4.6673   -3.7203    0.1428 C   0  0  0  0  0  0  0  0  0  0  0  0
    4.8880   -5.0674    0.0874 C   0  0  0  0  0  0  0  0  0  0  0  0
    6.1263   -5.5745    0.1979 C   0  0  0  0  0  0  0  0  0  0  0  0
    6.5144   -6.8502    0.1295 C   0  0  0  0  0  0  0  0  0  0  0  0
    6.9094   -8.0814    0.0723 N   0  0  0  0  0  0  0  0  0  0  0  0
    7.2671   -4.6415    0.3789 C   0  0  0  0  0  0  0  0  0  0  0  0
    8.5812   -5.1319    0.2763 C   0  0  0  0  0  0  0  0  0  0  0  0
    9.7210   -5.5593    0.2087 N   0  0  0  0  0  0  0  0  0  0  0  0
    6.9312   -3.3260    0.4582 C   0  0  0  0  0  0  0  0  0  0  0  0
    5.6459   -2.8049    0.3533 C   0  0  0  0  0  0  0  0  0  0  0  0
    5.4646   -1.4996    0.3485 N   0  0  0  0  0  0  0  0  0  0  0  0
    4.2193   -0.9987    0.1316 C   0  0  0  0  0  0  0  0  0  0  0  0
    3.9160    0.3397    0.0829 C   0  0  0  0  0  0  0  0  0  0  0  0
    4.9751    1.2244    0.2833 C   0  0  0  0  0  0  0  0  0  0  0  0
    2.6601    0.7876   -0.1488 C   0  0  0  0  0  0  0  0  0  0  0  0
    1.5247   -0.0125   -0.3555 C   0  0  0  0  0  0  0  0  0  0  0  0
    5.7470    2.5594    2.3818 H   0  0  0  0  0  0  0  0  0  0  0  0
    7.4082    3.0249    1.9350 H   0  0  0  0  0  0  0  0  0  0  0  0
    6.2316    4.3010    2.4004 H   0  0  0  0  0  0  0  0  0  0  0  0
    7.0598    2.1830   -0.8198 H   0  0  0  0  0  0  0  0  0  0  0  0
    7.9381    3.6283   -0.1938 H   0  0  0  0  0  0  0  0  0  0  0  0
    6.6928    3.7683   -1.5194 H   0  0  0  0  0  0  0  0  0  0  0  0
    5.0027    4.9737   -0.8204 H   0  0  0  0  0  0  0  0  0  0  0  0
    6.2758    5.5837    0.3302 H   0  0  0  0  0  0  0  0  0  0  0  0
    4.6044    5.2249    0.9376 H   0  0  0  0  0  0  0  0  0  0  0  0
    3.2244    4.0878   -0.0631 H   0  0  0  0  0  0  0  0  0  0  0  0
    0.8889    3.7219   -0.4328 H   0  0  0  0  0  0  0  0  0  0  0  0
   -0.9676    2.1871   -0.6117 H   0  0  0  0  0  0  0  0  0  0  0  0
   -2.4888   -1.9620    0.3067 H   0  0  0  0  0  0  0  0  0  0  0  0
   -4.6723   -2.0762    0.4325 H   0  0  0  0  0  0  0  0  0  0  0  0
   -5.9090   -1.4344    1.6010 H   0  0  0  0  0  0  0  0  0  0  0  0
   -6.6968   -3.8460    1.9083 H   0  0  0  0  0  0  0  0  0  0  0  0
   -8.4691   -4.6546    0.5882 H   0  0  0  0  0  0  0  0  0  0  0  0
   -9.5231   -3.1894   -1.2951 H   0  0  0  0  0  0  0  0  0  0  0  0
   -8.6673   -1.0899   -1.6329 H   0  0  0  0  0  0  0  0  0  0  0  0
   -6.3663    2.1656    1.6997 H   0  0  0  0  0  0  0  0  0  0  0  0
   -7.1759    4.2912    1.5120 H   0  0  0  0  0  0  0  0  0  0  0  0
   -8.5015    4.9056   -0.5959 H   0  0  0  0  0  0  0  0  0  0  0  0
   -8.8303    3.3447   -2.3109 H   0  0  0  0  0  0  0  0  0  0  0  0
   -7.8675    0.8966   -2.0429 H   0  0  0  0  0  0  0  0  0  0  0  0
   -4.8470    1.8695   -1.3702 H   0  0  0  0  0  0  0  0  0  0  0  0
   -2.3767    1.7775   -1.7078 H   0  0  0  0  0  0  0  0  0  0  0  0
   -1.3150   -2.4952   -0.9248 H   0  0  0  0  0  0  0  0  0  0  0  0
    1.0185   -3.2790   -0.5051 H   0  0  0  0  0  0  0  0  0  0  0  0
    4.0373   -5.7605   -0.0030 H   0  0  0  0  0  0  0  0  0  0  0  0
    7.7161   -2.5693    0.6092 H   0  0  0  0  0  0  0  0  0  0  0  0
    5.9619    0.8704    0.5223 H   0  0  0  0  0  0  0  0  0  0  0  0
  1  2  1  0
  2  3  1  0
  2  4  1  0
  2  5  1  0
  5  6  2  0
  6  7  1  0
  7  8  2  0
  8  9  1  0
  9 10  2  0
 10 11  1  0
 11 12  1  0
 12 13  2  0
 13 14  1  0
 14 15  2  0
 15 16  1  0
 16 17  1  0
 17 18  2  0
 18 19  1  0
 19 20  2  0
 20 21  1  0
 21 22  2  0
 16 23  1  0
 23 24  2  0
 24 25  1  0
 25 26  2  0
 26 27  1  0
 27 28  2  0
 15 29  1  0
 29 30  2  0
 11 31  2  0
 31 32  1  0
 32 33  2  0
 33 34  1  0
 34 35  2  0
 35 36  1  0
 36 37  2  0
 37 38  1  0
 38 39  1  0
 39 40  3  0
 38 41  2  0
 41 42  1  0
 42 43  3  0
 41 44  1  0
 44 45  2  0
 45 46  1  0
 46 47  2  0
 47 48  1  0
 48 49  2  0
 48 50  1  0
 50 51  2  0
 49  5  1  0
 50  7  1  0
 51 10  1  0
 30 12  1  0
 51 33  1  0
 22 17  1  0
 28 23  1  0
 47 34  1  0
 45 36  1  0
  1 52  1  0
  1 53  1  0
  1 54  1  0
  3 55  1  0
  3 56  1  0
  3 57  1  0
  4 58  1  0
  4 59  1  0
  4 60  1  0
  6 61  1  0
  8 62  1  0
  9 63  1  0
 13 64  1  0
 14 65  1  0
 18 66  1  0
 19 67  1  0
 20 68  1  0
 21 69  1  0
 22 70  1  0
 24 71  1  0
 25 72  1  0
 26 73  1  0
 27 74  1  0
 28 75  1  0
 29 76  1  0
 30 77  1  0
 31 78  1  0
 32 79  1  0
 37 80  1  0
 44 81  1  0
 49 82  1  0
M  END
