
     RDKit          3D

 22 24  0  0  0  0  0  0  0  0999 V2000
   -4.4569   -0.6700   -1.6684 O   0  0  0  0  0  0  0  0  0  0  0  0
   -3.4363   -0.3111   -0.9949 C   0  0  0  0  0  0  0  0  0  0  0  0
   -3.6193    0.4711    0.0855 N   0  0  0  0  0  0  0  0  0  0  0  0
   -2.5089    0.8226    0.7630 C   0  0  0  0  0  0  0  0  0  0  0  0
   -2.6637    1.5506    1.7710 O   0  0  0  0  0  0  0  0  0  0  0  0
   -1.2399    0.4214    0.3981 C   0  0  0  0  0  0  0  0  0  0  0  0
   -0.1383    0.7780    1.0816 N   0  0  0  0  0  0  0  0  0  0  0  0
    1.0860    0.3704    0.7005 C   0  0  0  0  0  0  0  0  0  0  0  0
    2.2259    0.7280    1.3914 C   0  0  0  0  0  0  0  0  0  0  0  0
    3.4909    0.3304    1.0312 C   0  0  0  0  0  0  0  0  0  0  0  0
    3.6096   -0.4711   -0.0870 C   0  0  0  0  0  0  0  0  0  0  0  0
    2.5094   -0.8609   -0.8173 C   0  0  0  0  0  0  0  0  0  0  0  0
    1.2578   -0.4429   -0.4259 C   0  0  0  0  0  0  0  0  0  0  0  0
    0.1360   -0.7808   -1.0860 N   0  0  0  0  0  0  0  0  0  0  0  0
   -1.0896   -0.3779   -0.7118 C   0  0  0  0  0  0  0  0  0  0  0  0
   -2.2108   -0.7171   -1.3736 N   0  0  0  0  0  0  0  0  0  0  0  0
   -4.5790    0.7943    0.3895 H   0  0  0  0  0  0  0  0  0  0  0  0
    2.1234    1.3587    2.2699 H   0  0  0  0  0  0  0  0  0  0  0  0
    4.3650    0.6136    1.5738 H   0  0  0  0  0  0  0  0  0  0  0  0
    4.5944   -0.7982   -0.3924 H   0  0  0  0  0  0  0  0  0  0  0  0
    2.6435   -1.4860   -1.6827 H   0  0  0  0  0  0  0  0  0  0  0  0
   -2.0990   -1.3232   -2.2156 H   0  0  0  0  0  0  0  0  0  0  0  0
  1  2  2  0
  2  3  1  0
  3  4  1  0
  4  5  2  0
  4  6  1  0
  6  7  2  0
  7  8  1  0
  8  9  2  0
  9 10  1  0
 10 11  2  0
 11 12  1  0
 12 13  2  0
 13 14  1  0
 14 15  2  0
 15 16  1  0
 16  2  1  0
 15  6  1  0
 13  8  1  0
  3 17  1  0
  9 18  1  0
 10 19  1  0
 11 20  1  0
 12 21  1  0
 16 22  1  0
M  END
