
     RDKit          3D

 84 90  0  0  0  0  0  0  0  0999 V2000
    8.1697    6.0138   -0.4679 O   0  0  0  0  0  0  0  0  0  0  0  0
    7.9899    4.8118   -0.7780 C   0  0  0  0  0  0  0  0  0  0  0  0
    9.0817    4.0809   -1.2219 O   0  0  0  0  0  0  0  0  0  0  0  0
    6.6590    4.2186   -0.6702 C   0  0  0  0  0  0  0  0  0  0  0  0
    6.6387    2.7048   -0.8600 C   0  0  0  0  0  0  0  0  0  0  0  0
    7.4594    2.0161    0.2132 C   0  0  0  0  0  0  0  0  0  0  0  0
    7.5814    0.6872    0.1687 O   0  0  0  0  0  0  0  0  0  0  0  0
    6.8823   -0.4566    0.2114 C   0  0  0  0  0  0  0  0  0  0  0  0
    7.5911   -1.6887    0.1058 C   0  0  0  0  0  0  0  0  0  0  0  0
    6.8773   -2.8526    0.1492 C   0  0  0  0  0  0  0  0  0  0  0  0
    5.5141   -2.8546    0.2873 C   0  0  0  0  0  0  0  0  0  0  0  0
    4.8114   -1.6696    0.3910 C   0  0  0  0  0  0  0  0  0  0  0  0
    3.3639   -1.6053    0.5321 C   0  0  0  0  0  0  0  0  0  0  0  0
    2.8309   -1.7426    1.8126 C   0  0  0  0  0  0  0  0  0  0  0  0
    1.5327   -1.9630    1.9701 N   0  0  0  0  0  0  0  0  0  0  0  0
    1.0476   -2.0845    3.1791 C   0  0  0  0  0  0  0  0  0  0  0  0
   -0.3331   -2.3089    3.4268 C   0  0  0  0  0  0  0  0  0  0  0  0
   -1.3416   -2.2673    2.5098 C   0  0  0  0  0  0  0  0  0  0  0  0
   -2.3062   -3.2920    2.4729 C   0  0  0  0  0  0  0  0  0  0  0  0
   -3.1782   -3.0914    1.4698 C   0  0  0  0  0  0  0  0  0  0  0  0
   -2.7667   -1.8926    0.8317 C   0  0  0  0  0  0  0  0  0  0  0  0
   -1.6822   -1.4382    1.4789 N   0  0  0  0  0  0  0  0  0  0  0  0
   -3.4967   -1.4651   -0.2884 C   0  0  0  0  0  0  0  0  0  0  0  0
   -4.9565   -1.7064   -0.4279 C   0  0  0  0  0  0  0  0  0  0  0  0
   -5.4404   -2.8941   -0.8801 C   0  0  0  0  0  0  0  0  0  0  0  0
   -6.8107   -3.0304   -0.9706 C   0  0  0  0  0  0  0  0  0  0  0  0
   -7.6406   -2.0046   -0.6167 C   0  0  0  0  0  0  0  0  0  0  0  0
   -7.1589   -0.7664   -0.1462 C   0  0  0  0  0  0  0  0  0  0  0  0
   -8.0387    0.2107    0.1928 O   0  0  0  0  0  0  0  0  0  0  0  0
   -7.8482    1.4892    0.6437 C   0  0  0  0  0  0  0  0  0  0  0  0
   -7.1634    2.4483   -0.2807 C   0  0  0  0  0  0  0  0  0  0  0  0
   -7.0543    3.8409    0.3622 C   0  0  0  0  0  0  0  0  0  0  0  0
   -6.3788    4.7723   -0.5828 C   0  0  0  0  0  0  0  0  0  0  0  0
   -5.9932    4.3386   -1.7122 O   0  0  0  0  0  0  0  0  0  0  0  0
   -6.1496    6.0980   -0.2879 O   0  0  0  0  0  0  0  0  0  0  0  0
   -5.7849   -0.6632   -0.0669 C   0  0  0  0  0  0  0  0  0  0  0  0
   -3.0018   -0.7929   -1.4259 C   0  0  0  0  0  0  0  0  0  0  0  0
   -1.7722   -1.0204   -1.6048 N   0  0  0  0  0  0  0  0  0  0  0  0
   -1.2978   -0.3581   -2.6698 C   0  0  0  0  0  0  0  0  0  0  0  0
    0.0747   -0.5094   -2.9780 C   0  0  0  0  0  0  0  0  0  0  0  0
    1.1628   -0.9742   -2.2465 C   0  0  0  0  0  0  0  0  0  0  0  0
    2.0630   -1.8709   -2.8057 C   0  0  0  0  0  0  0  0  0  0  0  0
    2.9694   -2.1813   -1.8596 C   0  0  0  0  0  0  0  0  0  0  0  0
    2.6303   -1.4664   -0.6893 C   0  0  0  0  0  0  0  0  0  0  0  0
    1.5360   -0.7473   -0.9665 N   0  0  0  0  0  0  0  0  0  0  0  0
   -2.3839    0.3617   -3.2012 C   0  0  0  0  0  0  0  0  0  0  0  0
   -3.4324    0.1039   -2.4495 C   0  0  0  0  0  0  0  0  0  0  0  0
    2.2370   -1.9177    3.9925 C   0  0  0  0  0  0  0  0  0  0  0  0
    3.2889   -1.7154    3.1892 C   0  0  0  0  0  0  0  0  0  0  0  0
    5.4981   -0.4789    0.3538 C   0  0  0  0  0  0  0  0  0  0  0  0
   10.0153    4.4083   -0.9498 H   0  0  0  0  0  0  0  0  0  0  0  0
    5.9781    4.6493   -1.4248 H   0  0  0  0  0  0  0  0  0  0  0  0
    6.2073    4.4321    0.3261 H   0  0  0  0  0  0  0  0  0  0  0  0
    5.5897    2.3796   -0.8019 H   0  0  0  0  0  0  0  0  0  0  0  0
    7.0310    2.4249   -1.8506 H   0  0  0  0  0  0  0  0  0  0  0  0
    8.4268    2.5750    0.3383 H   0  0  0  0  0  0  0  0  0  0  0  0
    6.8877    2.2830    1.1800 H   0  0  0  0  0  0  0  0  0  0  0  0
    8.6680   -1.6670   -0.0079 H   0  0  0  0  0  0  0  0  0  0  0  0
    7.4114   -3.7875    0.0737 H   0  0  0  0  0  0  0  0  0  0  0  0
    4.9636   -3.7869    0.3146 H   0  0  0  0  0  0  0  0  0  0  0  0
   -0.5273   -2.5459    4.4595 H   0  0  0  0  0  0  0  0  0  0  0  0
   -2.4335   -4.1753    3.1297 H   0  0  0  0  0  0  0  0  0  0  0  0
   -4.0327   -3.7424    1.2171 H   0  0  0  0  0  0  0  0  0  0  0  0
   -1.1568   -0.4897    1.2129 H   0  0  0  0  0  0  0  0  0  0  0  0
   -4.7551   -3.6646   -1.1429 H   0  0  0  0  0  0  0  0  0  0  0  0
   -7.2145   -3.9831   -1.3358 H   0  0  0  0  0  0  0  0  0  0  0  0
   -8.7215   -2.1035   -0.6850 H   0  0  0  0  0  0  0  0  0  0  0  0
   -8.8290    1.9959    0.9200 H   0  0  0  0  0  0  0  0  0  0  0  0
   -7.3008    1.5153    1.6486 H   0  0  0  0  0  0  0  0  0  0  0  0
   -6.1392    2.1953   -0.5769 H   0  0  0  0  0  0  0  0  0  0  0  0
   -7.7994    2.5543   -1.1976 H   0  0  0  0  0  0  0  0  0  0  0  0
   -6.5887    3.8096    1.3489 H   0  0  0  0  0  0  0  0  0  0  0  0
   -8.1167    4.1623    0.5126 H   0  0  0  0  0  0  0  0  0  0  0  0
   -6.2170    6.7978   -1.0444 H   0  0  0  0  0  0  0  0  0  0  0  0
   -5.3802    0.2646    0.3050 H   0  0  0  0  0  0  0  0  0  0  0  0
    0.1515   -0.2245   -3.9512 H   0  0  0  0  0  0  0  0  0  0  0  0
    2.0366   -2.2420   -3.8313 H   0  0  0  0  0  0  0  0  0  0  0  0
    3.8401   -2.8699   -1.9568 H   0  0  0  0  0  0  0  0  0  0  0  0
    1.0033   -0.0294   -0.2551 H   0  0  0  0  0  0  0  0  0  0  0  0
   -2.2382    0.9741   -4.0579 H   0  0  0  0  0  0  0  0  0  0  0  0
   -4.4444    0.4741   -2.5445 H   0  0  0  0  0  0  0  0  0  0  0  0
    2.2608   -1.9511    5.0928 H   0  0  0  0  0  0  0  0  0  0  0  0
    4.3290   -1.5528    3.4558 H   0  0  0  0  0  0  0  0  0  0  0  0
    5.0144    0.4947    0.4394 H   0  0  0  0  0  0  0  0  0  0  0  0
  1  2  2  0
  2  3  1  0
  2  4  1  0
  4  5  1  0
  5  6  1  0
  6  7  1  0
  7  8  1  0
  8  9  2  0
  9 10  1  0
 10 11  2  0
 11 12  1  0
 12 13  1  0
 13 14  1  0
 14 15  2  0
 15 16  1  0
 16 17  2  0
 17 18  1  0
 18 19  2  0
 19 20  1  0
 20 21  2  0
 21 22  1  0
 21 23  1  0
 23 24  1  0
 24 25  2  0
 25 26  1  0
 26 27  2  0
 27 28  1  0
 28 29  1  0
 29 30  1  0
 30 31  1  0
 31 32  1  0
 32 33  1  0
 33 34  2  0
 33 35  1  0
 28 36  2  0
 23 37  2  0
 37 38  1  0
 38 39  2  0
 39 40  1  0
 40 41  2  0
 41 42  1  0
 42 43  2  0
 43 44  1  0
 44 45  1  0
 39 46  1  0
 46 47  2  0
 16 48  1  0
 48 49  2  0
 12 50  2  0
 50  8  1  0
 44 13  2  0
 49 14  1  0
 22 18  1  0
 36 24  1  0
 47 37  1  0
 45 41  1  0
  3 51  1  0
  4 52  1  0
  4 53  1  0
  5 54  1  0
  5 55  1  0
  6 56  1  0
  6 57  1  0
  9 58  1  0
 10 59  1  0
 11 60  1  0
 17 61  1  0
 19 62  1  0
 20 63  1  0
 22 64  1  0
 25 65  1  0
 26 66  1  0
 27 67  1  0
 30 68  1  0
 30 69  1  0
 31 70  1  0
 31 71  1  0
 32 72  1  0
 32 73  1  0
 35 74  1  0
 36 75  1  0
 40 76  1  0
 42 77  1  0
 43 78  1  0
 45 79  1  0
 46 80  1  0
 47 81  1  0
 48 82  1  0
 49 83  1  0
 50 84  1  0
M  END
