
     RDKit          3D

 35 37  0  0  0  0  0  0  0  0999 V2000
   -5.7238   -0.1872    1.4659 C   0  0  0  0  0  0  0  0  0  0  0  0
   -4.9834   -0.3605    0.2292 N   0  0  0  0  0  0  0  0  0  0  0  0
   -5.7370   -0.9158   -0.9015 C   0  0  0  0  0  0  0  0  0  0  0  0
   -3.6174   -0.0268    0.0815 C   0  0  0  0  0  0  0  0  0  0  0  0
   -3.2083    1.2237   -0.3258 C   0  0  0  0  0  0  0  0  0  0  0  0
   -1.9036    1.5962   -0.4838 C   0  0  0  0  0  0  0  0  0  0  0  0
   -0.8754    0.6684   -0.2229 C   0  0  0  0  0  0  0  0  0  0  0  0
    0.4057    0.8987   -0.3353 N   0  0  0  0  0  0  0  0  0  0  0  0
    1.2728   -0.0530   -0.0618 C   0  0  0  0  0  0  0  0  0  0  0  0
    2.7408   -0.0444   -0.1100 C   0  0  0  0  0  0  0  0  0  0  0  0
    3.4398    1.0542   -0.4786 C   0  0  0  0  0  0  0  0  0  0  0  0
    4.8166    1.0022   -0.5048 C   0  0  0  0  0  0  0  0  0  0  0  0
    5.5241   -0.1329   -0.1684 C   0  0  0  0  0  0  0  0  0  0  0  0
    6.9758   -0.1858   -0.1967 C   0  0  0  0  0  0  0  0  0  0  0  0
    7.6444    0.8048   -0.5302 O   0  0  0  0  0  0  0  0  0  0  0  0
    7.6320   -1.3511    0.1509 O   0  0  0  0  0  0  0  0  0  0  0  0
    4.7744   -1.2344    0.2026 C   0  0  0  0  0  0  0  0  0  0  0  0
    3.4015   -1.1976    0.2336 C   0  0  0  0  0  0  0  0  0  0  0  0
    0.2570   -1.3520    0.3797 S   0  0  0  0  0  0  0  0  0  0  0  0
   -1.2606   -0.5795    0.1829 C   0  0  0  0  0  0  0  0  0  0  0  0
   -2.6036   -0.9371    0.3374 C   0  0  0  0  0  0  0  0  0  0  0  0
   -6.0804   -1.1977    1.7685 H   0  0  0  0  0  0  0  0  0  0  0  0
   -5.1241    0.2953    2.2494 H   0  0  0  0  0  0  0  0  0  0  0  0
   -6.6114    0.4519    1.1974 H   0  0  0  0  0  0  0  0  0  0  0  0
   -5.6609   -2.0190   -0.8090 H   0  0  0  0  0  0  0  0  0  0  0  0
   -6.7993   -0.5918   -0.8453 H   0  0  0  0  0  0  0  0  0  0  0  0
   -5.2614   -0.6340   -1.8645 H   0  0  0  0  0  0  0  0  0  0  0  0
   -4.0123    1.9356   -0.5256 H   0  0  0  0  0  0  0  0  0  0  0  0
   -1.6815    2.6129   -0.8115 H   0  0  0  0  0  0  0  0  0  0  0  0
    2.9071    1.9677   -0.7505 H   0  0  0  0  0  0  0  0  0  0  0  0
    5.4106    1.8650   -0.7957 H   0  0  0  0  0  0  0  0  0  0  0  0
    8.5626   -1.2846    0.5827 H   0  0  0  0  0  0  0  0  0  0  0  0
    5.3381   -2.1236    0.4659 H   0  0  0  0  0  0  0  0  0  0  0  0
    2.8382   -2.0895    0.5327 H   0  0  0  0  0  0  0  0  0  0  0  0
   -2.7970   -1.9443    0.6613 H   0  0  0  0  0  0  0  0  0  0  0  0
  1  2  1  0
  2  3  1  0
  2  4  1  0
  4  5  2  0
  5  6  1  0
  6  7  2  0
  7  8  1  0
  8  9  2  0
  9 10  1  0
 10 11  2  0
 11 12  1  0
 12 13  2  0
 13 14  1  0
 14 15  2  0
 14 16  1  0
 13 17  1  0
 17 18  2  0
  9 19  1  0
 19 20  1  0
 20 21  2  0
 21  4  1  0
 20  7  1  0
 18 10  1  0
  1 22  1  0
  1 23  1  0
  1 24  1  0
  3 25  1  0
  3 26  1  0
  3 27  1  0
  5 28  1  0
  6 29  1  0
 11 30  1  0
 12 31  1  0
 16 32  1  0
 17 33  1  0
 18 34  1  0
 21 35  1  0
M  END
