
     RDKit          3D

 45 49  0  0  0  0  0  0  0  0999 V2000
    2.6952    1.5420   -1.4984 O   0  0  0  0  0  0  0  0  0  0  0  0
    1.6066    2.1617   -1.2895 C   0  0  0  0  0  0  0  0  0  0  0  0
    1.4987    3.6284   -1.3769 C   0  0  0  0  0  0  0  0  0  0  0  0
    0.5928    4.1119   -0.2642 C   0  0  0  0  0  0  0  0  0  0  0  0
   -0.7258    3.4358   -0.3662 C   0  0  0  0  0  0  0  0  0  0  0  0
   -0.6419    1.9449   -0.5223 C   0  0  0  0  0  0  0  0  0  0  0  0
    0.4212    1.3308   -0.9460 C   0  0  0  0  0  0  0  0  0  0  0  0
    0.5108   -0.1209   -1.1034 C   0  0  0  0  0  0  0  0  0  0  0  0
    1.7262   -0.6813   -0.4521 C   0  0  0  0  0  0  0  0  0  0  0  0
    2.5985   -1.4690   -1.1621 C   0  0  0  0  0  0  0  0  0  0  0  0
    3.7363   -2.0222   -0.6145 C   0  0  0  0  0  0  0  0  0  0  0  0
    4.0264   -1.7811    0.7115 C   0  0  0  0  0  0  0  0  0  0  0  0
    5.2041   -2.3476    1.2966 N   0  0  0  0  0  4  0  0  0  0  0  0
    5.9814   -3.0590    0.6356 O   0  0  0  0  0  0  0  0  0  0  0  0
    5.5211   -2.1264    2.6145 O   0  0  0  0  0  1  0  0  0  0  0  0
    3.1621   -0.9929    1.4377 C   0  0  0  0  0  0  0  0  0  0  0  0
    2.0203   -0.4419    0.8760 C   0  0  0  0  0  0  0  0  0  0  0  0
   -0.7100   -0.8253   -0.7324 C   0  0  0  0  0  0  0  0  0  0  0  0
   -1.8231   -0.1598   -0.2870 C   0  0  0  0  0  0  0  0  0  0  0  0
   -2.9749   -0.8788    0.0573 C   0  0  0  0  0  0  0  0  0  0  0  0
   -4.1033   -0.2794    0.5025 C   0  0  0  0  0  0  0  0  0  0  0  0
   -5.2491   -1.0191    0.8430 C   0  0  0  0  0  0  0  0  0  0  0  0
   -5.2039   -2.3900    0.7139 C   0  0  0  0  0  0  0  0  0  0  0  0
   -4.0667   -3.0240    0.2628 C   0  0  0  0  0  0  0  0  0  0  0  0
   -2.9583   -2.2560   -0.0623 C   0  0  0  0  0  0  0  0  0  0  0  0
   -1.8743   -2.8534   -0.4917 O   0  0  0  0  0  0  0  0  0  0  0  0
   -0.7865   -2.2001   -0.8191 C   0  0  0  0  0  0  0  0  0  0  0  0
    0.1882   -2.8861   -1.2174 O   0  0  0  0  0  0  0  0  0  0  0  0
   -1.8524    1.2475   -0.1580 N   0  0  0  0  0  0  0  0  0  0  0  0
    1.0466    3.9080   -2.3280 H   0  0  0  0  0  0  0  0  0  0  0  0
    2.4986    4.0881   -1.2997 H   0  0  0  0  0  0  0  0  0  0  0  0
    1.0746    4.0228    0.7286 H   0  0  0  0  0  0  0  0  0  0  0  0
    0.4313    5.1951   -0.4430 H   0  0  0  0  0  0  0  0  0  0  0  0
   -1.2383    3.8063   -1.2777 H   0  0  0  0  0  0  0  0  0  0  0  0
   -1.3414    3.6515    0.5309 H   0  0  0  0  0  0  0  0  0  0  0  0
    0.6350   -0.3149   -2.2196 H   0  0  0  0  0  0  0  0  0  0  0  0
    2.4154   -1.6799   -2.2043 H   0  0  0  0  0  0  0  0  0  0  0  0
    4.3830   -2.6350   -1.2299 H   0  0  0  0  0  0  0  0  0  0  0  0
    3.4071   -0.8111    2.4892 H   0  0  0  0  0  0  0  0  0  0  0  0
    1.3530    0.1770    1.4691 H   0  0  0  0  0  0  0  0  0  0  0  0
   -4.1995    0.7693    0.6229 H   0  0  0  0  0  0  0  0  0  0  0  0
   -6.1329   -0.5342    1.1930 H   0  0  0  0  0  0  0  0  0  0  0  0
   -6.1064   -2.9466    0.9843 H   0  0  0  0  0  0  0  0  0  0  0  0
   -4.0861   -4.0988    0.1807 H   0  0  0  0  0  0  0  0  0  0  0  0
   -2.6597    1.8136    0.1721 H   0  0  0  0  0  0  0  0  0  0  0  0
  1  2  2  0
  2  3  1  0
  3  4  1  0
  4  5  1  0
  5  6  1  0
  6  7  2  0
  7  8  1  0
  8  9  1  0
  9 10  2  0
 10 11  1  0
 11 12  2  0
 12 13  1  0
 13 14  2  0
 13 15  1  0
 12 16  1  0
 16 17  2  0
  8 18  1  0
 18 19  2  0
 19 20  1  0
 20 21  2  0
 21 22  1  0
 22 23  2  0
 23 24  1  0
 24 25  2  0
 25 26  1  0
 26 27  1  0
 27 28  2  0
 19 29  1  0
  7  2  1  0
 17  9  1  0
 27 18  1  0
 29  6  1  0
 25 20  1  0
  3 30  1  0
  3 31  1  0
  4 32  1  0
  4 33  1  0
  5 34  1  0
  5 35  1  0
  8 36  1  0
 10 37  1  0
 11 38  1  0
 16 39  1  0
 17 40  1  0
 21 41  1  0
 22 42  1  0
 23 43  1  0
 24 44  1  0
 29 45  1  0
M  CHG  2  13   1  15  -1
M  END
