
     RDKit          3D

 48 51  0  0  0  0  0  0  0  0999 V2000
   -5.3381   -0.8394   -1.2459 C   0  0  0  0  0  0  0  0  0  0  0  0
   -4.5882   -1.1468   -0.0764 N   0  0  0  0  0  0  0  0  0  0  0  0
   -4.7053   -2.5138    0.4256 C   0  0  0  0  0  0  0  0  0  0  0  0
   -3.7305   -0.2488    0.6293 C   0  0  0  0  0  0  0  0  0  0  0  0
   -2.3670   -0.3160    0.4940 C   0  0  0  0  0  0  0  0  0  0  0  0
   -1.4574    0.5334    1.0773 C   0  0  0  0  0  0  0  0  0  0  0  0
   -0.0601    0.4421    0.7122 C   0  0  0  0  0  0  0  0  0  0  0  0
    0.9755    0.8584    1.6370 C   0  0  0  0  0  0  0  0  0  0  0  0
    2.1114    0.7535    0.7939 C   0  0  0  0  0  0  0  0  0  0  0  0
    2.5408    0.4668   -0.3002 C   0  0  0  0  0  0  0  0  0  0  0  0
    3.9784    0.0186   -0.5519 C   0  0  0  0  0  0  0  0  0  0  0  0
    5.1466   -0.3493   -0.7683 C   0  0  0  0  0  0  0  0  0  0  0  0
    6.4450   -0.7497   -1.0157 C   0  0  0  0  0  0  0  0  0  0  0  0
    6.8901   -0.9498   -2.3876 C   0  0  0  0  0  0  0  0  0  0  0  0
    8.2643   -1.1044   -2.5039 C   0  0  0  0  0  0  0  0  0  0  0  0
    9.1608   -1.0866   -1.5518 C   0  0  0  0  0  0  0  0  0  0  0  0
    8.7365   -0.8805   -0.0941 C   0  0  0  0  0  0  0  0  0  0  0  0
    7.3730   -0.7408   -0.1132 C   0  0  0  0  0  0  0  0  0  0  0  0
    1.5087    0.0539   -1.1908 C   0  0  0  0  0  0  0  0  0  0  0  0
    0.2592    0.0813   -0.5873 C   0  0  0  0  0  0  0  0  0  0  0  0
   -2.0347    1.5235    1.8753 C   0  0  0  0  0  0  0  0  0  0  0  0
   -3.3720    1.5996    2.0096 C   0  0  0  0  0  0  0  0  0  0  0  0
   -3.9831    2.6060    2.7318 C   0  0  0  0  0  0  0  0  0  0  0  0
   -5.2995    2.7850    2.8732 C   0  0  0  0  0  0  0  0  0  0  0  0
   -6.2255    1.8749    2.2468 C   0  0  0  0  0  0  0  0  0  0  0  0
   -5.6457    0.8749    1.5378 C   0  0  0  0  0  0  0  0  0  0  0  0
   -4.3145    0.7257    1.4049 C   0  0  0  0  0  0  0  0  0  0  0  0
   -6.4117   -1.1503   -1.2380 H   0  0  0  0  0  0  0  0  0  0  0  0
   -4.8821   -1.5575   -2.0887 H   0  0  0  0  0  0  0  0  0  0  0  0
   -5.2052    0.1530   -1.6123 H   0  0  0  0  0  0  0  0  0  0  0  0
   -5.6599   -3.0132    0.0869 H   0  0  0  0  0  0  0  0  0  0  0  0
   -4.7800   -2.5489    1.5320 H   0  0  0  0  0  0  0  0  0  0  0  0
   -3.7772   -3.0864    0.1491 H   0  0  0  0  0  0  0  0  0  0  0  0
   -1.9518   -1.1004   -0.1558 H   0  0  0  0  0  0  0  0  0  0  0  0
    0.8339    1.1378    2.5328 H   0  0  0  0  0  0  0  0  0  0  0  0
    3.0456    1.0811    1.5308 H   0  0  0  0  0  0  0  0  0  0  0  0
    6.2626   -0.9515   -3.1840 H   0  0  0  0  0  0  0  0  0  0  0  0
    8.5899   -1.2428   -3.5721 H   0  0  0  0  0  0  0  0  0  0  0  0
   10.2306   -1.2057   -1.6666 H   0  0  0  0  0  0  0  0  0  0  0  0
    9.4489   -0.8813    0.5866 H   0  0  0  0  0  0  0  0  0  0  0  0
    6.9597   -0.5769    0.9831 H   0  0  0  0  0  0  0  0  0  0  0  0
    1.6876   -0.2974   -2.1552 H   0  0  0  0  0  0  0  0  0  0  0  0
   -0.6153   -0.2346   -1.1945 H   0  0  0  0  0  0  0  0  0  0  0  0
   -1.3435    2.2078    2.3848 H   0  0  0  0  0  0  0  0  0  0  0  0
   -3.3123    3.3378    3.2356 H   0  0  0  0  0  0  0  0  0  0  0  0
   -5.7784    3.5831    3.4552 H   0  0  0  0  0  0  0  0  0  0  0  0
   -7.3012    1.9985    2.3495 H   0  0  0  0  0  0  0  0  0  0  0  0
   -6.3088    0.0762    1.0682 H   0  0  0  0  0  0  0  0  0  0  0  0
  1  2  1  0
  2  3  1  0
  2  4  1  0
  4  5  2  0
  5  6  1  0
  6  7  1  0
  7  8  2  0
  8  9  1  0
  9 10  2  0
 10 11  1  0
 11 12  3  0
 12 13  1  0
 13 14  2  0
 14 15  1  0
 15 16  2  0
 16 17  1  0
 17 18  2  0
 10 19  1  0
 19 20  2  0
  6 21  2  0
 21 22  1  0
 22 23  2  0
 23 24  1  0
 24 25  2  0
 25 26  1  0
 26 27  2  0
 27  4  1  0
 20  7  1  0
 27 22  1  0
 18 13  1  0
  1 28  1  0
  1 29  1  0
  1 30  1  0
  3 31  1  0
  3 32  1  0
  3 33  1  0
  5 34  1  0
  8 35  1  0
  9 36  1  0
 14 37  1  0
 15 38  1  0
 16 39  1  0
 17 40  1  0
 18 41  1  0
 19 42  1  0
 20 43  1  0
 21 44  1  0
 23 45  1  0
 24 46  1  0
 25 47  1  0
 26 48  1  0
M  END
