
     RDKit          3D

 44 48  0  0  0  0  0  0  0  0999 V2000
   -0.5749   -4.3038    1.0013 C   0  0  0  0  0  0  0  0  0  0  0  0
   -0.3783   -2.8617    0.5999 C   0  0  0  0  0  0  0  0  0  0  0  0
   -1.4319   -2.1114    0.4245 C   0  0  0  0  0  0  0  0  0  0  0  0
   -2.8497   -2.4803    0.5725 C   0  0  0  0  0  0  0  0  0  0  0  0
   -3.5203   -1.3821    0.3221 C   0  0  0  0  0  0  0  0  0  0  0  0
   -2.5852   -0.2715    0.0049 C   0  0  0  0  0  0  0  0  0  0  0  0
   -3.0833    1.0517   -0.3334 C   0  0  0  0  0  0  0  0  0  0  0  0
   -2.3464    2.0815   -0.8372 C   0  0  0  0  0  0  0  0  0  0  0  0
   -2.9528    3.3323   -1.0682 C   0  0  0  0  0  0  0  0  0  0  0  0
   -4.2619    3.5888   -0.8160 C   0  0  0  0  0  0  0  0  0  0  0  0
   -5.0117    2.5379   -0.3034 C   0  0  0  0  0  0  0  0  0  0  0  0
   -4.4462    1.3404   -0.0778 C   0  0  0  0  0  0  0  0  0  0  0  0
   -1.3673   -0.7378    0.0724 N   0  0  0  0  0  4  0  0  0  0  0  0
   -0.0003   -0.1033   -0.1767 B   0  0  0  0  0  4  0  0  0  0  0  0
    0.0963    0.2605   -1.5988 F   0  0  0  0  0  0  0  0  0  0  0  0
    0.0614    1.0844    0.6507 F   0  0  0  0  0  0  0  0  0  0  0  0
    1.1721   -1.0263    0.1507 N   0  0  0  0  0  0  0  0  0  0  0  0
    0.9697   -2.3130    0.4632 C   0  0  0  0  0  0  0  0  0  0  0  0
    2.1725   -2.9532    0.6839 C   0  0  0  0  0  0  0  0  0  0  0  0
    3.1156   -1.9928    0.4932 C   0  0  0  0  0  0  0  0  0  0  0  0
    2.5085   -0.7667    0.1563 C   0  0  0  0  0  0  0  0  0  0  0  0
    3.2883    0.4403   -0.0530 C   0  0  0  0  0  0  0  0  0  0  0  0
    4.6617    0.4378    0.2654 C   0  0  0  0  0  0  0  0  0  0  0  0
    5.4925    1.4989    0.0792 C   0  0  0  0  0  0  0  0  0  0  0  0
    5.0122    2.6706   -0.4492 C   0  0  0  0  0  0  0  0  0  0  0  0
    3.6970    2.7262   -0.7731 C   0  0  0  0  0  0  0  0  0  0  0  0
    2.8394    1.6185   -0.5771 C   0  0  0  0  0  0  0  0  0  0  0  0
   -1.3786   -4.7648    0.3950 H   0  0  0  0  0  0  0  0  0  0  0  0
   -0.7856   -4.3885    2.0881 H   0  0  0  0  0  0  0  0  0  0  0  0
    0.3589   -4.8670    0.7961 H   0  0  0  0  0  0  0  0  0  0  0  0
   -3.2434   -3.4551    0.8331 H   0  0  0  0  0  0  0  0  0  0  0  0
   -4.5938   -1.3236    0.3445 H   0  0  0  0  0  0  0  0  0  0  0  0
   -1.3206    1.9925   -1.0910 H   0  0  0  0  0  0  0  0  0  0  0  0
   -2.3301    4.1189   -1.4673 H   0  0  0  0  0  0  0  0  0  0  0  0
   -4.7631    4.5126   -0.9733 H   0  0  0  0  0  0  0  0  0  0  0  0
   -6.0728    2.6630   -0.0737 H   0  0  0  0  0  0  0  0  0  0  0  0
   -5.0376    0.5467    0.3235 H   0  0  0  0  0  0  0  0  0  0  0  0
    2.2943   -4.0017    0.9505 H   0  0  0  0  0  0  0  0  0  0  0  0
    4.1752   -2.1684    0.5852 H   0  0  0  0  0  0  0  0  0  0  0  0
    5.0442   -0.4822    0.6920 H   0  0  0  0  0  0  0  0  0  0  0  0
    6.5338    1.3929    0.3575 H   0  0  0  0  0  0  0  0  0  0  0  0
    5.7194    3.4741   -0.5718 H   0  0  0  0  0  0  0  0  0  0  0  0
    3.2831    3.6328   -1.1916 H   0  0  0  0  0  0  0  0  0  0  0  0
    1.8397    1.7518   -0.8735 H   0  0  0  0  0  0  0  0  0  0  0  0
  1  2  1  0
  2  3  2  0
  3  4  1  0
  4  5  2  0
  5  6  1  0
  6  7  1  0
  7  8  2  0
  8  9  1  0
  9 10  2  0
 10 11  1  0
 11 12  2  0
  6 13  2  0
 13 14  1  0
 14 15  1  0
 14 16  1  0
 14 17  1  0
 17 18  1  0
 18 19  2  0
 19 20  1  0
 20 21  2  0
 21 22  1  0
 22 23  2  0
 23 24  1  0
 24 25  2  0
 25 26  1  0
 26 27  2  0
 18  2  1  0
 27 22  1  0
 13  3  1  0
 21 17  1  0
 12  7  1  0
  1 28  1  0
  1 29  1  0
  1 30  1  0
  4 31  1  0
  5 32  1  0
  8 33  1  0
  9 34  1  0
 10 35  1  0
 11 36  1  0
 12 37  1  0
 19 38  1  0
 20 39  1  0
 23 40  1  0
 24 41  1  0
 25 42  1  0
 26 43  1  0
 27 44  1  0
M  CHG  2  13   1  14  -1
M  END
