
     RDKit          3D

 38 40  0  0  0  0  0  0  0  0999 V2000
   -5.5421    2.6090   -1.5425 C   0  0  0  0  0  0  0  0  0  0  0  0
   -5.0344    1.5077   -0.8162 O   0  0  0  0  0  0  0  0  0  0  0  0
   -3.6830    1.2447   -0.6930 C   0  0  0  0  0  0  0  0  0  0  0  0
   -2.8703    2.0226   -1.2540 O   0  0  0  0  0  0  0  0  0  0  0  0
   -3.2410    0.0983    0.0666 C   0  0  0  0  0  0  0  0  0  0  0  0
   -4.1321   -0.7596    0.6850 C   0  0  0  0  0  0  0  0  0  0  0  0
   -3.5457   -1.8035    1.3692 C   0  0  0  0  0  0  0  0  0  0  0  0
   -4.3898   -2.5859    1.9344 O   0  0  0  0  0  0  0  0  0  0  0  0
   -2.2306   -2.0208    1.4629 N   0  0  0  0  0  0  0  0  0  0  0  0
   -1.7833   -3.1796    2.2307 C   0  0  0  0  0  0  0  0  0  0  0  0
   -1.3231   -1.1874    0.8604 C   0  0  0  0  0  0  0  0  0  0  0  0
    0.0148   -1.2917    0.8765 C   0  0  0  0  0  0  0  0  0  0  0  0
    0.7262   -0.3392    0.2013 C   0  0  0  0  0  0  0  0  0  0  0  0
    2.1700   -0.1885    0.0401 C   0  0  0  0  0  0  0  0  0  0  0  0
    3.0256   -1.0986    0.6225 C   0  0  0  0  0  0  0  0  0  0  0  0
    4.3762   -0.9112    0.4402 C   0  0  0  0  0  0  0  0  0  0  0  0
    4.8833    0.1383   -0.2924 C   0  0  0  0  0  0  0  0  0  0  0  0
    4.0255    1.0559   -0.8799 C   0  0  0  0  0  0  0  0  0  0  0  0
    4.4806    2.1345   -1.6302 O   0  0  0  0  0  0  0  0  0  0  0  0
    5.8777    2.2848   -1.7892 C   0  0  0  0  0  0  0  0  0  0  0  0
    2.6735    0.8642   -0.6946 C   0  0  0  0  0  0  0  0  0  0  0  0
   -0.4867    0.6737   -0.4363 S   0  0  0  0  0  0  0  0  0  0  0  0
   -1.8729   -0.1497    0.1789 C   0  0  0  0  0  0  0  0  0  0  0  0
   -6.5329    2.9307   -1.1808 H   0  0  0  0  0  0  0  0  0  0  0  0
   -5.6672    2.2824   -2.5948 H   0  0  0  0  0  0  0  0  0  0  0  0
   -4.8513    3.4791   -1.5282 H   0  0  0  0  0  0  0  0  0  0  0  0
   -5.1932   -0.5847    0.6097 H   0  0  0  0  0  0  0  0  0  0  0  0
   -1.6946   -4.0643    1.5625 H   0  0  0  0  0  0  0  0  0  0  0  0
   -2.4565   -3.3793    3.0855 H   0  0  0  0  0  0  0  0  0  0  0  0
   -0.7680   -2.9733    2.6333 H   0  0  0  0  0  0  0  0  0  0  0  0
    0.6022   -2.0836    1.3897 H   0  0  0  0  0  0  0  0  0  0  0  0
    2.6856   -1.9473    1.2122 H   0  0  0  0  0  0  0  0  0  0  0  0
    5.0485   -1.6300    0.9004 H   0  0  0  0  0  0  0  0  0  0  0  0
    5.9477    0.2928   -0.4407 H   0  0  0  0  0  0  0  0  0  0  0  0
    6.0911    3.2860   -2.2629 H   0  0  0  0  0  0  0  0  0  0  0  0
    6.2784    1.4491   -2.3829 H   0  0  0  0  0  0  0  0  0  0  0  0
    6.4033    2.2530   -0.7971 H   0  0  0  0  0  0  0  0  0  0  0  0
    1.9886    1.5715   -1.1465 H   0  0  0  0  0  0  0  0  0  0  0  0
  1  2  1  0
  2  3  1  0
  3  4  2  0
  3  5  1  0
  5  6  2  0
  6  7  1  0
  7  8  2  0
  7  9  1  0
  9 10  1  0
  9 11  1  0
 11 12  1  0
 12 13  2  0
 13 14  1  0
 14 15  2  0
 15 16  1  0
 16 17  2  0
 17 18  1  0
 18 19  1  0
 19 20  1  0
 18 21  2  0
 13 22  1  0
 22 23  1  0
 23  5  1  0
 23 11  2  0
 21 14  1  0
  1 24  1  0
  1 25  1  0
  1 26  1  0
  6 27  1  0
 10 28  1  0
 10 29  1  0
 10 30  1  0
 12 31  1  0
 15 32  1  0
 16 33  1  0
 17 34  1  0
 20 35  1  0
 20 36  1  0
 20 37  1  0
 21 38  1  0
M  END
