
     RDKit          3D

 68 71  0  0  0  0  0  0  0  0999 V2000
   11.3001    1.4653   -1.6976 C   0  0  0  0  0  0  0  0  0  0  0  0
    9.8861    1.3548   -1.4943 O   0  0  0  0  0  0  0  0  0  0  0  0
    9.0983    2.4956   -1.4558 C   0  0  0  0  0  0  0  0  0  0  0  0
    9.6767    3.6024   -1.6050 O   0  0  0  0  0  0  0  0  0  0  0  0
    7.6569    2.4300   -1.2515 C   0  0  0  0  0  0  0  0  0  0  0  0
    7.0153    1.3085   -1.0925 C   0  0  0  0  0  0  0  0  0  0  0  0
    5.5554    1.3305   -0.8912 C   0  0  0  0  0  0  0  0  0  0  0  0
    4.8385    0.2375   -0.7234 C   0  0  0  0  0  0  0  0  0  0  0  0
    3.3832    0.3448   -0.5281 C   0  0  0  0  0  0  0  0  0  0  0  0
    2.5701   -0.6760   -0.3512 C   0  0  0  0  0  0  0  0  0  0  0  0
    1.1761   -0.1732   -0.1891 C   0  0  0  0  0  0  0  0  0  0  0  0
    0.0168   -0.7695    0.0185 C   0  0  0  0  0  0  0  0  0  0  0  0
   -0.0526   -2.2017    0.1345 C   0  0  0  0  0  0  0  0  0  0  0  0
   -0.8595   -2.8809   -0.7587 C   0  0  0  0  0  0  0  0  0  0  0  0
   -1.6040   -2.2193   -1.8623 C   0  0  0  0  0  0  0  0  0  0  0  0
   -0.9387   -4.2492   -0.5950 C   0  0  0  0  0  0  0  0  0  0  0  0
   -0.2654   -4.9428    0.3927 C   0  0  0  0  0  0  0  0  0  0  0  0
   -0.3759   -6.4305    0.5391 C   0  0  0  0  0  0  0  0  0  0  0  0
    0.5199   -4.1885    1.2436 C   0  0  0  0  0  0  0  0  0  0  0  0
    0.6552   -2.8162    1.1516 C   0  0  0  0  0  0  0  0  0  0  0  0
    1.5070   -2.0872    2.1318 C   0  0  0  0  0  0  0  0  0  0  0  0
   -1.2026    0.0292    0.1508 C   0  0  0  0  0  0  0  0  0  0  0  0
   -2.5451   -0.3212    0.3898 C   0  0  0  0  0  0  0  0  0  0  0  0
   -3.2829    0.8217    0.4379 C   0  0  0  0  0  0  0  0  0  0  0  0
   -4.7330    0.8707    0.6691 C   0  0  0  0  0  0  0  0  0  0  0  0
   -5.3999    2.0100    0.7061 C   0  0  0  0  0  0  0  0  0  0  0  0
   -6.8383    2.0374    0.9369 C   0  0  0  0  0  0  0  0  0  0  0  0
   -7.4921    3.1807    0.9715 C   0  0  0  0  0  0  0  0  0  0  0  0
   -8.9289    3.2097    1.2019 C   0  0  0  0  0  0  0  0  0  0  0  0
   -9.5565    4.2990    1.2356 O   0  0  0  0  0  0  0  0  0  0  0  0
   -9.6575    2.0454    1.3921 O   0  0  0  0  0  0  0  0  0  0  0  0
  -11.0459    2.1427    1.6105 C   0  0  0  0  0  0  0  0  0  0  0  0
   -2.4281    1.8733    0.2346 C   0  0  0  0  0  0  0  0  0  0  0  0
   -1.1777    1.3618    0.0644 N   0  0  0  0  0  0  0  0  0  0  0  0
    0.0951    2.1301   -0.1861 B   0  0  0  0  0  4  0  0  0  0  0  0
   -0.0043    2.9287   -1.4223 F   0  0  0  0  0  0  0  0  0  0  0  0
    0.2617    3.0972    0.9068 F   0  0  0  0  0  0  0  0  0  0  0  0
    1.3052    1.2322   -0.2964 N   0  0  0  0  0  4  0  0  0  0  0  0
    2.5634    1.5300   -0.4897 C   0  0  0  0  0  0  0  0  0  0  0  0
   11.5563    2.3094   -2.3421 H   0  0  0  0  0  0  0  0  0  0  0  0
   11.6723    0.4913   -2.0259 H   0  0  0  0  0  0  0  0  0  0  0  0
   11.7331    1.6728   -0.6936 H   0  0  0  0  0  0  0  0  0  0  0  0
    7.0871    3.3484   -1.2295 H   0  0  0  0  0  0  0  0  0  0  0  0
    7.5584    0.3706   -1.1095 H   0  0  0  0  0  0  0  0  0  0  0  0
    5.0288    2.2736   -0.8770 H   0  0  0  0  0  0  0  0  0  0  0  0
    5.3283   -0.7123   -0.7322 H   0  0  0  0  0  0  0  0  0  0  0  0
    2.8424   -1.7352   -0.3324 H   0  0  0  0  0  0  0  0  0  0  0  0
   -1.3970   -2.8531   -2.7795 H   0  0  0  0  0  0  0  0  0  0  0  0
   -2.6959   -2.2751   -1.7466 H   0  0  0  0  0  0  0  0  0  0  0  0
   -1.2150   -1.2309   -2.1186 H   0  0  0  0  0  0  0  0  0  0  0  0
   -1.5779   -4.8122   -1.2970 H   0  0  0  0  0  0  0  0  0  0  0  0
   -0.9491   -6.7873   -0.3410 H   0  0  0  0  0  0  0  0  0  0  0  0
    0.6194   -6.8740    0.6261 H   0  0  0  0  0  0  0  0  0  0  0  0
   -1.0222   -6.6846    1.4281 H   0  0  0  0  0  0  0  0  0  0  0  0
    1.0654   -4.7267    2.0388 H   0  0  0  0  0  0  0  0  0  0  0  0
    2.5782   -2.3266    2.0322 H   0  0  0  0  0  0  0  0  0  0  0  0
    1.2714   -1.0271    2.2162 H   0  0  0  0  0  0  0  0  0  0  0  0
    1.2240   -2.5220    3.1404 H   0  0  0  0  0  0  0  0  0  0  0  0
   -2.8884   -1.3571    0.5175 H   0  0  0  0  0  0  0  0  0  0  0  0
   -5.3035   -0.0305    0.8173 H   0  0  0  0  0  0  0  0  0  0  0  0
   -4.8700    2.9366    0.5630 H   0  0  0  0  0  0  0  0  0  0  0  0
   -7.4005    1.1251    1.0844 H   0  0  0  0  0  0  0  0  0  0  0  0
   -6.9729    4.1105    0.8298 H   0  0  0  0  0  0  0  0  0  0  0  0
  -11.3784    1.1368    1.9730 H   0  0  0  0  0  0  0  0  0  0  0  0
  -11.2869    2.9270    2.3742 H   0  0  0  0  0  0  0  0  0  0  0  0
  -11.5329    2.3819    0.6427 H   0  0  0  0  0  0  0  0  0  0  0  0
   -2.7022    2.9206    0.2139 H   0  0  0  0  0  0  0  0  0  0  0  0
    2.9355    2.5368   -0.6051 H   0  0  0  0  0  0  0  0  0  0  0  0
  1  2  1  0
  2  3  1  0
  3  4  2  0
  3  5  1  0
  5  6  2  0
  6  7  1  0
  7  8  2  0
  8  9  1  0
  9 10  2  0
 10 11  1  0
 11 12  2  0
 12 13  1  0
 13 14  2  0
 14 15  1  0
 14 16  1  0
 16 17  2  0
 17 18  1  0
 17 19  1  0
 19 20  2  0
 20 21  1  0
 12 22  1  0
 22 23  2  0
 23 24  1  0
 24 25  1  0
 25 26  2  0
 26 27  1  0
 27 28  2  0
 28 29  1  0
 29 30  2  0
 29 31  1  0
 31 32  1  0
 24 33  2  0
 33 34  1  0
 34 35  1  0
 35 36  1  0
 35 37  1  0
 35 38  1  0
 38 39  2  0
 39  9  1  0
 38 11  1  0
 20 13  1  0
 34 22  1  0
  1 40  1  0
  1 41  1  0
  1 42  1  0
  5 43  1  0
  6 44  1  0
  7 45  1  0
  8 46  1  0
 10 47  1  0
 15 48  1  0
 15 49  1  0
 15 50  1  0
 16 51  1  0
 18 52  1  0
 18 53  1  0
 18 54  1  0
 19 55  1  0
 21 56  1  0
 21 57  1  0
 21 58  1  0
 23 59  1  0
 25 60  1  0
 26 61  1  0
 27 62  1  0
 28 63  1  0
 32 64  1  0
 32 65  1  0
 32 66  1  0
 33 67  1  0
 39 68  1  0
M  CHG  2  35  -1  38   1
M  END
