
     RDKit          3D

 91100  0  0  0  0  0  0  0  0999 V2000
    0.0966    2.7368   -1.2302 F   0  0  0  0  0  0  0  0  0  0  0  0
    0.1372    2.0781    0.1371 B   0  0  0  0  0  4  0  0  0  0  0  0
    0.2802    3.0753    1.1534 F   0  0  0  0  0  0  0  0  0  0  0  0
    1.3812    1.1823    0.0698 N   0  0  0  0  0  0  0  0  0  0  0  0
    1.2868   -0.1517   -0.1020 C   0  0  0  0  0  0  0  0  0  0  0  0
    2.5605   -0.6597   -0.2123 C   0  0  0  0  0  0  0  0  0  0  0  0
    3.0093   -2.0157   -0.4491 C   0  0  0  0  0  0  0  0  0  0  0  0
    3.6983   -2.7398    0.4993 C   0  0  0  0  0  0  0  0  0  0  0  0
    4.1650   -4.0235    0.2309 C   0  0  0  0  0  0  0  0  0  0  0  0
    3.9302   -4.5762   -1.0104 C   0  0  0  0  0  0  0  0  0  0  0  0
    3.2415   -3.8458   -1.9502 C   0  0  0  0  0  0  0  0  0  0  0  0
    2.7904   -2.5886   -1.6719 C   0  0  0  0  0  0  0  0  0  0  0  0
    3.4112    0.4468   -0.0893 C   0  0  0  0  0  0  0  0  0  0  0  0
    4.8457    0.3624   -0.1419 C   0  0  0  0  0  0  0  0  0  0  0  0
    5.5439    0.6956   -1.2816 C   0  0  0  0  0  0  0  0  0  0  0  0
    6.9405    0.6100   -1.3005 C   0  0  0  0  0  0  0  0  0  0  0  0
    7.6393    0.1949   -0.1888 C   0  0  0  0  0  0  0  0  0  0  0  0
    6.9489   -0.1343    0.9387 C   0  0  0  0  0  0  0  0  0  0  0  0
    5.5691   -0.0483    0.9517 C   0  0  0  0  0  0  0  0  0  0  0  0
    2.6793    1.5834    0.0854 C   0  0  0  0  0  0  0  0  0  0  0  0
    3.1286    2.9594    0.2755 C   0  0  0  0  0  0  0  0  0  0  0  0
    3.7298    3.3588    1.4588 C   0  0  0  0  0  0  0  0  0  0  0  0
    4.1822    4.6318    1.7023 C   0  0  0  0  0  0  0  0  0  0  0  0
    4.0480    5.6045    0.7320 C   0  0  0  0  0  0  0  0  0  0  0  0
    3.4541    5.2345   -0.4538 C   0  0  0  0  0  0  0  0  0  0  0  0
    2.9983    3.9377   -0.6902 C   0  0  0  0  0  0  0  0  0  0  0  0
   -0.0427   -0.7937   -0.0883 C   0  0  0  0  0  0  0  0  0  0  0  0
   -0.0840   -2.2289   -0.3512 C   0  0  0  0  0  0  0  0  0  0  0  0
    0.4829   -3.1034    0.5417 C   0  0  0  0  0  0  0  0  0  0  0  0
    0.5190   -4.4709    0.3460 C   0  0  0  0  0  0  0  0  0  0  0  0
   -0.0474   -4.9649   -0.8095 C   0  0  0  0  0  0  0  0  0  0  0  0
   -0.6273   -4.1084   -1.7303 C   0  0  0  0  0  0  0  0  0  0  0  0
   -0.6445   -2.7499   -1.5012 C   0  0  0  0  0  0  0  0  0  0  0  0
   -1.1555   -0.1118    0.0810 C   0  0  0  0  0  0  0  0  0  0  0  0
   -2.5223   -0.5720    0.1439 C   0  0  0  0  0  0  0  0  0  0  0  0
   -3.1005   -1.9075    0.0811 C   0  0  0  0  0  0  0  0  0  0  0  0
   -2.7860   -2.9149    0.9568 C   0  0  0  0  0  0  0  0  0  0  0  0
   -3.3577   -4.1816    0.8479 C   0  0  0  0  0  0  0  0  0  0  0  0
   -4.2601   -4.4666   -0.1439 C   0  0  0  0  0  0  0  0  0  0  0  0
   -4.5907   -3.4678   -1.0344 C   0  0  0  0  0  0  0  0  0  0  0  0
   -4.0160   -2.2275   -0.9094 C   0  0  0  0  0  0  0  0  0  0  0  0
   -3.2696    0.5497    0.2828 C   0  0  0  0  0  0  0  0  0  0  0  0
   -4.7273    0.4226    0.3707 C   0  0  0  0  0  0  0  0  0  0  0  0
   -5.3563   -0.3985    1.2849 C   0  0  0  0  0  0  0  0  0  0  0  0
   -6.7269   -0.5425    1.2961 C   0  0  0  0  0  0  0  0  0  0  0  0
   -7.4772    0.1597    0.3615 C   0  0  0  0  0  0  0  0  0  0  0  0
   -6.8547    0.9846   -0.5582 C   0  0  0  0  0  0  0  0  0  0  0  0
   -5.4917    1.1272   -0.5683 C   0  0  0  0  0  0  0  0  0  0  0  0
   -2.3965    1.7325    0.3174 C   0  0  0  0  0  0  0  0  0  0  0  0
   -2.9212    3.0823    0.4840 C   0  0  0  0  0  0  0  0  0  0  0  0
   -4.1613    3.2651    1.1096 C   0  0  0  0  0  0  0  0  0  0  0  0
   -4.7494    4.4921    1.2195 C   0  0  0  0  0  0  0  0  0  0  0  0
   -4.1547    5.6336    0.7221 C   0  0  0  0  0  0  0  0  0  0  0  0
   -2.9437    5.4711    0.1122 C   0  0  0  0  0  0  0  0  0  0  0  0
   -2.3259    4.2024   -0.0085 C   0  0  0  0  0  0  0  0  0  0  0  0
   -1.1608    1.3071    0.1849 N   0  0  0  0  0  4  0  0  0  0  0  0
    3.9057   -2.3594    1.4797 H   0  0  0  0  0  0  0  0  0  0  0  0
    4.7076   -4.5742    0.9978 H   0  0  0  0  0  0  0  0  0  0  0  0
    4.2726   -5.5751   -1.2743 H   0  0  0  0  0  0  0  0  0  0  0  0
    3.0554   -4.2893   -2.9414 H   0  0  0  0  0  0  0  0  0  0  0  0
    2.2568   -2.0391   -2.4209 H   0  0  0  0  0  0  0  0  0  0  0  0
    5.0073    1.0186   -2.1488 H   0  0  0  0  0  0  0  0  0  0  0  0
    7.5136    0.8643   -2.1790 H   0  0  0  0  0  0  0  0  0  0  0  0
    8.7250    0.1206   -0.1794 H   0  0  0  0  0  0  0  0  0  0  0  0
    7.4757   -0.4568    1.8050 H   0  0  0  0  0  0  0  0  0  0  0  0
    5.0808   -0.3187    1.8704 H   0  0  0  0  0  0  0  0  0  0  0  0
    3.8466    2.6192    2.2318 H   0  0  0  0  0  0  0  0  0  0  0  0
    4.6479    4.8670    2.6679 H   0  0  0  0  0  0  0  0  0  0  0  0
    4.4079    6.6024    0.9357 H   0  0  0  0  0  0  0  0  0  0  0  0
    3.3414    5.9853   -1.2242 H   0  0  0  0  0  0  0  0  0  0  0  0
    2.5448    3.7049   -1.6429 H   0  0  0  0  0  0  0  0  0  0  0  0
    0.9438   -2.7448    1.4745 H   0  0  0  0  0  0  0  0  0  0  0  0
    0.9795   -5.1385    1.0796 H   0  0  0  0  0  0  0  0  0  0  0  0
   -0.0284   -6.0460   -0.9828 H   0  0  0  0  0  0  0  0  0  0  0  0
   -1.0486   -4.5432   -2.6033 H   0  0  0  0  0  0  0  0  0  0  0  0
   -1.0878   -2.0557   -2.1962 H   0  0  0  0  0  0  0  0  0  0  0  0
   -2.0810   -2.7089    1.7516 H   0  0  0  0  0  0  0  0  0  0  0  0
   -3.0907   -4.9570    1.5512 H   0  0  0  0  0  0  0  0  0  0  0  0
   -4.7120   -5.4655   -0.2318 H   0  0  0  0  0  0  0  0  0  0  0  0
   -5.3084   -3.6971   -1.8206 H   0  0  0  0  0  0  0  0  0  0  0  0
   -4.2836   -1.4577   -1.6109 H   0  0  0  0  0  0  0  0  0  0  0  0
   -4.7775   -0.9418    2.0079 H   0  0  0  0  0  0  0  0  0  0  0  0
   -7.2559   -1.1787    1.9985 H   0  0  0  0  0  0  0  0  0  0  0  0
   -8.5386    0.0399    0.3804 H   0  0  0  0  0  0  0  0  0  0  0  0
   -7.4323    1.5387   -1.2923 H   0  0  0  0  0  0  0  0  0  0  0  0
   -4.9868    1.7612   -1.2705 H   0  0  0  0  0  0  0  0  0  0  0  0
   -4.6324    2.4245    1.5683 H   0  0  0  0  0  0  0  0  0  0  0  0
   -5.7184    4.6458    1.7039 H   0  0  0  0  0  0  0  0  0  0  0  0
   -4.6196    6.6123    0.8075 H   0  0  0  0  0  0  0  0  0  0  0  0
   -2.4681    6.3668   -0.2815 H   0  0  0  0  0  0  0  0  0  0  0  0
   -1.3882    4.2482   -0.5148 H   0  0  0  0  0  0  0  0  0  0  0  0
  1  2  1  0
  2  3  1  0
  2  4  1  0
  4  5  1  0
  5  6  2  0
  6  7  1  0
  7  8  2  0
  8  9  1  0
  9 10  2  0
 10 11  1  0
 11 12  2  0
  6 13  1  0
 13 14  1  0
 14 15  2  0
 15 16  1  0
 16 17  2  0
 17 18  1  0
 18 19  2  0
 13 20  2  0
 20 21  1  0
 21 22  2  0
 22 23  1  0
 23 24  2  0
 24 25  1  0
 25 26  2  0
  5 27  1  0
 27 28  1  0
 28 29  2  0
 29 30  1  0
 30 31  2  0
 31 32  1  0
 32 33  2  0
 27 34  2  0
 34 35  1  0
 35 36  1  0
 36 37  2  0
 37 38  1  0
 38 39  2  0
 39 40  1  0
 40 41  2  0
 35 42  2  0
 42 43  1  0
 43 44  2  0
 44 45  1  0
 45 46  2  0
 46 47  1  0
 47 48  2  0
 42 49  1  0
 49 50  1  0
 50 51  2  0
 51 52  1  0
 52 53  2  0
 53 54  1  0
 54 55  2  0
 49 56  2  0
 56  2  1  0
 20  4  1  0
 26 21  1  0
 33 28  1  0
 56 34  1  0
 12  7  1  0
 19 14  1  0
 41 36  1  0
 48 43  1  0
 55 50  1  0
  8 57  1  0
  9 58  1  0
 10 59  1  0
 11 60  1  0
 12 61  1  0
 15 62  1  0
 16 63  1  0
 17 64  1  0
 18 65  1  0
 19 66  1  0
 22 67  1  0
 23 68  1  0
 24 69  1  0
 25 70  1  0
 26 71  1  0
 29 72  1  0
 30 73  1  0
 31 74  1  0
 32 75  1  0
 33 76  1  0
 37 77  1  0
 38 78  1  0
 39 79  1  0
 40 80  1  0
 41 81  1  0
 44 82  1  0
 45 83  1  0
 46 84  1  0
 47 85  1  0
 48 86  1  0
 51 87  1  0
 52 88  1  0
 53 89  1  0
 54 90  1  0
 55 91  1  0
M  CHG  2   2  -1  56   1
M  END
