
     RDKit          3D

 39 41  0  0  0  0  0  0  0  0999 V2000
    4.1758   -4.3222    0.8504 C   0  0  0  0  0  0  0  0  0  0  0  0
    3.9857   -3.2835   -0.0816 O   0  0  0  0  0  0  0  0  0  0  0  0
    2.9001   -2.4252   -0.1328 C   0  0  0  0  0  0  0  0  0  0  0  0
    2.8594   -1.4474   -1.1392 C   0  0  0  0  0  0  0  0  0  0  0  0
    1.7974   -0.5819   -1.2134 C   0  0  0  0  0  0  0  0  0  0  0  0
    1.7710    0.3857   -2.2218 O   0  0  0  0  0  0  0  0  0  0  0  0
    2.7871    0.5297   -3.1857 C   0  0  0  0  0  0  0  0  0  0  0  0
    0.7650   -0.6457   -0.3233 C   0  0  0  0  0  0  0  0  0  0  0  0
   -0.3204    0.2439   -0.4020 C   0  0  0  0  0  0  0  0  0  0  0  0
   -1.3666    0.1844    0.4986 C   0  0  0  0  0  0  0  0  0  0  0  0
   -2.5380    1.0433    0.4340 C   0  0  0  0  0  0  0  0  0  0  0  0
   -3.8141    0.4563    0.2841 C   0  0  0  0  0  0  0  0  0  0  0  0
   -4.9343    1.2180    0.1520 C   0  0  0  0  0  0  0  0  0  0  0  0
   -4.8470    2.6012    0.1621 C   0  0  0  0  0  0  0  0  0  0  0  0
   -3.6175    3.1945    0.3079 C   0  0  0  0  0  0  0  0  0  0  0  0
   -2.4576    2.4005    0.4455 C   0  0  0  0  0  0  0  0  0  0  0  0
   -1.1727    3.0904    0.6721 C   0  0  0  0  0  0  0  0  0  0  0  0
   -0.9056    3.0472    2.1487 C   0  0  0  0  0  0  0  0  0  0  0  0
   -0.6941    3.0322    3.2662 N   0  0  0  0  0  0  0  0  0  0  0  0
   -1.2335   -0.8143    1.4526 C   0  0  0  0  0  0  0  0  0  0  0  0
   -2.1515   -0.9307    2.3084 O   0  0  0  0  0  0  0  0  0  0  0  0
   -0.2117   -1.6275    1.5003 O   0  0  0  0  0  0  0  0  0  0  0  0
    0.7977   -1.5942    0.6589 C   0  0  0  0  0  0  0  0  0  0  0  0
    1.8632   -2.4979    0.7693 C   0  0  0  0  0  0  0  0  0  0  0  0
    4.6857   -5.2043    0.3861 H   0  0  0  0  0  0  0  0  0  0  0  0
    4.9034   -3.9559    1.6313 H   0  0  0  0  0  0  0  0  0  0  0  0
    3.2763   -4.6266    1.3878 H   0  0  0  0  0  0  0  0  0  0  0  0
    3.6837   -1.4024   -1.8432 H   0  0  0  0  0  0  0  0  0  0  0  0
    3.1835   -0.4360   -3.5655 H   0  0  0  0  0  0  0  0  0  0  0  0
    2.3091    1.0320   -4.0772 H   0  0  0  0  0  0  0  0  0  0  0  0
    3.6228    1.1708   -2.8623 H   0  0  0  0  0  0  0  0  0  0  0  0
   -0.3196    0.9474   -1.1982 H   0  0  0  0  0  0  0  0  0  0  0  0
   -3.8730   -0.6226    0.2760 H   0  0  0  0  0  0  0  0  0  0  0  0
   -5.8972    0.7713    0.0387 H   0  0  0  0  0  0  0  0  0  0  0  0
   -5.7674    3.1544    0.0527 H   0  0  0  0  0  0  0  0  0  0  0  0
   -3.5085    4.2704    0.3201 H   0  0  0  0  0  0  0  0  0  0  0  0
   -1.2788    4.1890    0.4598 H   0  0  0  0  0  0  0  0  0  0  0  0
   -0.2884    2.6707    0.2253 H   0  0  0  0  0  0  0  0  0  0  0  0
    1.8306   -3.2147    1.5572 H   0  0  0  0  0  0  0  0  0  0  0  0
  1  2  1  0
  2  3  1  0
  3  4  2  0
  4  5  1  0
  5  6  1  0
  6  7  1  0
  5  8  2  0
  8  9  1  0
  9 10  2  0
 10 11  1  0
 11 12  2  0
 12 13  1  0
 13 14  2  0
 14 15  1  0
 15 16  2  0
 16 17  1  0
 17 18  1  0
 18 19  3  0
 10 20  1  0
 20 21  2  0
 20 22  1  0
 22 23  1  0
 23 24  2  0
 24  3  1  0
 23  8  1  0
 16 11  1  0
  1 25  1  0
  1 26  1  0
  1 27  1  0
  4 28  1  0
  7 29  1  0
  7 30  1  0
  7 31  1  0
  9 32  1  0
 12 33  1  0
 13 34  1  0
 14 35  1  0
 15 36  1  0
 17 37  1  0
 17 38  1  0
 24 39  1  0
M  END
