
     RDKit          3D

 21 23  0  0  0  0  0  0  0  0999 V2000
    0.1969    3.7792   -0.0156 O   0  0  0  0  0  0  0  0  0  0  0  0
   -0.3285    2.6214    0.0414 C   0  0  0  0  0  0  0  0  0  0  0  0
   -1.6972    2.4495    0.1947 O   0  0  0  0  0  0  0  0  0  0  0  0
   -2.2639    1.1786    0.2561 C   0  0  0  0  0  0  0  0  0  0  0  0
   -3.5080    1.0459    0.3955 O   0  0  0  0  0  0  0  0  0  0  0  0
   -1.4507   -0.0272    0.1628 C   0  0  0  0  0  0  0  0  0  0  0  0
   -1.9977   -1.3107    0.2220 C   0  0  0  0  0  0  0  0  0  0  0  0
   -1.2309   -2.4341    0.1340 C   0  0  0  0  0  0  0  0  0  0  0  0
    0.1282   -2.2739   -0.0183 C   0  0  0  0  0  0  0  0  0  0  0  0
    0.6808   -1.0023   -0.0781 C   0  0  0  0  0  0  0  0  0  0  0  0
    2.0428   -0.8595   -0.2307 C   0  0  0  0  0  0  0  0  0  0  0  0
    2.6175    0.4134   -0.2931 C   0  0  0  0  0  0  0  0  0  0  0  0
    1.8398    1.5503   -0.2038 C   0  0  0  0  0  0  0  0  0  0  0  0
    0.4744    1.4078   -0.0508 C   0  0  0  0  0  0  0  0  0  0  0  0
   -0.0898    0.1361    0.0103 C   0  0  0  0  0  0  0  0  0  0  0  0
   -3.0713   -1.3709    0.3423 H   0  0  0  0  0  0  0  0  0  0  0  0
   -1.6786   -3.4141    0.1825 H   0  0  0  0  0  0  0  0  0  0  0  0
    0.7269   -3.1765   -0.0870 H   0  0  0  0  0  0  0  0  0  0  0  0
    2.6373   -1.7516   -0.2990 H   0  0  0  0  0  0  0  0  0  0  0  0
    3.6992    0.5030   -0.4143 H   0  0  0  0  0  0  0  0  0  0  0  0
    2.2729    2.5358   -0.2507 H   0  0  0  0  0  0  0  0  0  0  0  0
  1  2  2  0
  2  3  1  0
  3  4  1  0
  4  5  2  0
  4  6  1  0
  6  7  1  0
  7  8  2  0
  8  9  1  0
  9 10  2  0
 10 11  1  0
 11 12  2  0
 12 13  1  0
 13 14  2  0
 14 15  1  0
 14  2  1  0
 15  6  2  0
 15 10  1  0
  7 16  1  0
  8 17  1  0
  9 18  1  0
 11 19  1  0
 12 20  1  0
 13 21  1  0
M  END
