
     RDKit          3D

 21 21  0  0  0  0  0  0  0  0999 V2000
    3.0836   -0.7098   -0.1142 C   0  0  0  0  0  0  0  0  0  0  0  0
    1.6986   -0.1695   -0.0716 C   0  0  0  0  0  0  0  0  0  0  0  0
    1.4267    1.1831   -0.1114 C   0  0  0  0  0  0  0  0  0  0  0  0
    0.1282    1.6583   -0.0702 C   0  0  0  0  0  0  0  0  0  0  0  0
   -0.9542    0.7979    0.0128 C   0  0  0  0  0  0  0  0  0  0  0  0
   -2.3575    1.2822    0.0585 C   0  0  0  0  0  0  0  0  0  0  0  0
   -0.6770   -0.5527    0.0523 C   0  0  0  0  0  0  0  0  0  0  0  0
   -1.8353   -1.4882    0.1417 C   0  0  0  0  0  0  0  0  0  0  0  0
    0.6185   -1.0231    0.0111 C   0  0  0  0  0  0  0  0  0  0  0  0
    3.2451   -1.4765    0.6835 H   0  0  0  0  0  0  0  0  0  0  0  0
    3.3587   -1.0872   -1.1237 H   0  0  0  0  0  0  0  0  0  0  0  0
    3.8060    0.1107    0.1074 H   0  0  0  0  0  0  0  0  0  0  0  0
    2.2526    1.8676   -0.1758 H   0  0  0  0  0  0  0  0  0  0  0  0
   -0.0972    2.7143   -0.1007 H   0  0  0  0  0  0  0  0  0  0  0  0
   -3.0169    0.4365   -0.1495 H   0  0  0  0  0  0  0  0  0  0  0  0
   -2.6237    1.6830    1.0707 H   0  0  0  0  0  0  0  0  0  0  0  0
   -2.5244    2.1266   -0.6439 H   0  0  0  0  0  0  0  0  0  0  0  0
   -1.4382   -2.5271    0.1441 H   0  0  0  0  0  0  0  0  0  0  0  0
   -2.4533   -1.3278    1.0296 H   0  0  0  0  0  0  0  0  0  0  0  0
   -2.4593   -1.4178   -0.7935 H   0  0  0  0  0  0  0  0  0  0  0  0
    0.8192   -2.0804    0.0427 H   0  0  0  0  0  0  0  0  0  0  0  0
  1  2  1  0
  2  3  2  0
  3  4  1  0
  4  5  2  0
  5  6  1  0
  5  7  1  0
  7  8  1  0
  7  9  2  0
  9  2  1  0
  1 10  1  0
  1 11  1  0
  1 12  1  0
  3 13  1  0
  4 14  1  0
  6 15  1  0
  6 16  1  0
  6 17  1  0
  8 18  1  0
  8 19  1  0
  8 20  1  0
  9 21  1  0
M  END
