
     RDKit          3D

 44 49  0  0  0  0  0  0  0  0999 V2000
   -5.6592    0.1158    0.3579 O   0  0  0  0  0  0  0  0  0  0  0  0
   -4.3923    0.0902    0.2213 C   0  0  0  0  0  0  0  0  0  0  0  0
   -3.7209    1.2685    0.0421 C   0  0  0  0  0  0  0  0  0  0  0  0
   -4.4386    2.4277   -0.1594 C   0  0  0  0  0  0  0  0  0  0  0  0
   -3.8355    3.6058   -0.5238 C   0  0  0  0  0  0  0  0  0  0  0  0
   -2.4775    3.5951   -0.6900 C   0  0  0  0  0  0  0  0  0  0  0  0
   -1.7386    2.4351   -0.4856 C   0  0  0  0  0  0  0  0  0  0  0  0
   -2.3340    1.2641   -0.1018 C   0  0  0  0  0  0  0  0  0  0  0  0
   -1.6371    0.1149   -0.0521 N   0  0  0  0  0  0  0  0  0  0  0  0
   -0.2999    0.0988   -0.1391 C   0  0  0  0  0  0  0  0  0  0  0  0
    0.4558    1.2397   -0.0657 C   0  0  0  0  0  0  0  0  0  0  0  0
    1.8413    1.2007    0.0011 C   0  0  0  0  0  0  0  0  0  0  0  0
    2.5260    0.0097    0.0068 C   0  0  0  0  0  0  0  0  0  0  0  0
    3.9672   -0.0391    0.0740 C   0  0  0  0  0  0  0  0  0  0  0  0
    4.7261    0.9558   -0.4945 C   0  0  0  0  0  0  0  0  0  0  0  0
    6.0868    0.8854   -0.4128 C   0  0  0  0  0  0  0  0  0  0  0  0
    6.7045   -0.1692    0.2315 C   0  0  0  0  0  0  0  0  0  0  0  0
    5.9672   -1.1635    0.8001 C   0  0  0  0  0  0  0  0  0  0  0  0
    4.5932   -1.0837    0.7125 C   0  0  0  0  0  0  0  0  0  0  0  0
    1.7714   -1.1377   -0.0528 C   0  0  0  0  0  0  0  0  0  0  0  0
    0.3895   -1.1283   -0.1211 C   0  0  0  0  0  0  0  0  0  0  0  0
   -0.2859   -2.3238    0.0145 C   0  0  0  0  0  0  0  0  0  0  0  0
    0.3424   -3.3902    0.0216 O   0  0  0  0  0  0  0  0  0  0  0  0
   -1.6439   -2.2857    0.1376 C   0  0  0  0  0  0  0  0  0  0  0  0
   -2.3742   -3.4607    0.3000 C   0  0  0  0  0  0  0  0  0  0  0  0
   -3.7422   -3.4393    0.4349 C   0  0  0  0  0  0  0  0  0  0  0  0
   -4.4280   -2.2477    0.4124 C   0  0  0  0  0  0  0  0  0  0  0  0
   -3.6950   -1.0776    0.2497 C   0  0  0  0  0  0  0  0  0  0  0  0
   -2.3225   -1.0876    0.1137 C   0  0  0  0  0  0  0  0  0  0  0  0
   -5.5346    2.3923   -0.0191 H   0  0  0  0  0  0  0  0  0  0  0  0
   -4.4102    4.5175   -0.6755 H   0  0  0  0  0  0  0  0  0  0  0  0
   -1.9975    4.5278   -0.9872 H   0  0  0  0  0  0  0  0  0  0  0  0
   -0.7345    2.5405   -0.8647 H   0  0  0  0  0  0  0  0  0  0  0  0
    0.0793    2.2242    0.1568 H   0  0  0  0  0  0  0  0  0  0  0  0
    2.3699    2.1515    0.0475 H   0  0  0  0  0  0  0  0  0  0  0  0
    4.2856    1.8147   -1.0176 H   0  0  0  0  0  0  0  0  0  0  0  0
    6.6765    1.6862   -0.8712 H   0  0  0  0  0  0  0  0  0  0  0  0
    7.8015   -0.1911    0.2772 H   0  0  0  0  0  0  0  0  0  0  0  0
    6.4680   -1.9823    1.3006 H   0  0  0  0  0  0  0  0  0  0  0  0
    4.0363   -1.9038    1.1831 H   0  0  0  0  0  0  0  0  0  0  0  0
    2.2531   -2.1146   -0.0489 H   0  0  0  0  0  0  0  0  0  0  0  0
   -1.8157   -4.4095    0.3165 H   0  0  0  0  0  0  0  0  0  0  0  0
   -4.3223   -4.3447    0.5619 H   0  0  0  0  0  0  0  0  0  0  0  0
   -5.5014   -2.1819    0.5146 H   0  0  0  0  0  0  0  0  0  0  0  0
  1  2  2  0
  2  3  1  0
  3  4  2  0
  4  5  1  0
  5  6  2  0
  6  7  1  0
  7  8  2  0
  8  9  1  0
  9 10  1  0
 10 11  2  0
 11 12  1  0
 12 13  2  0
 13 14  1  0
 14 15  2  0
 15 16  1  0
 16 17  2  0
 17 18  1  0
 18 19  2  0
 13 20  1  0
 20 21  2  0
 21 22  1  0
 22 23  2  0
 22 24  1  0
 24 25  1  0
 25 26  2  0
 26 27  1  0
 27 28  2  0
 28 29  1  0
 28  2  1  0
  8  3  1  0
 29  9  1  0
 21 10  1  0
 29 24  2  0
 19 14  1  0
  4 30  1  0
  5 31  1  0
  6 32  1  0
  7 33  1  0
 11 34  1  0
 12 35  1  0
 15 36  1  0
 16 37  1  0
 17 38  1  0
 18 39  1  0
 19 40  1  0
 20 41  1  0
 25 42  1  0
 26 43  1  0
 27 44  1  0
M  END
