
     RDKit          3D

 47 51  0  0  0  0  0  0  0  0999 V2000
    6.0950    0.8028   -1.5784 C   0  0  0  0  0  0  0  0  0  0  0  0
    4.8419    0.5963   -2.1673 O   0  0  0  0  0  0  0  0  0  0  0  0
    3.6939    0.3600   -1.3899 C   0  0  0  0  0  0  0  0  0  0  0  0
    2.4657    0.1575   -1.9631 C   0  0  0  0  0  0  0  0  0  0  0  0
    1.3771   -0.0692   -1.1481 C   0  0  0  0  0  0  0  0  0  0  0  0
    1.5233   -0.0921    0.2386 C   0  0  0  0  0  0  0  0  0  0  0  0
    0.2953   -0.3539    1.0304 C   0  0  0  0  0  0  0  0  0  0  0  0
   -0.3783   -1.6246    0.6642 C   0  0  0  0  0  0  0  0  0  0  0  0
   -1.6489   -1.7415    0.3376 C   0  0  0  0  0  0  0  0  0  0  0  0
   -2.1989   -3.0819   -0.0094 C   0  0  0  0  0  0  0  0  0  0  0  0
   -1.2384   -3.8577   -0.8890 C   0  0  0  0  0  0  0  0  0  0  0  0
    0.1444   -3.8831   -0.3433 C   0  0  0  0  0  0  0  0  0  0  0  0
    0.4318   -2.8475    0.6734 C   0  0  0  0  0  0  0  0  0  0  0  0
    1.3417   -2.9973    1.5275 O   0  0  0  0  0  0  0  0  0  0  0  0
   -2.4811   -0.5793    0.3245 N   0  0  0  0  0  0  0  0  0  0  0  0
   -1.9053    0.6540    0.6641 C   0  0  0  0  0  0  0  0  0  0  0  0
   -0.5783    0.8085    1.0106 C   0  0  0  0  0  0  0  0  0  0  0  0
   -0.0621    2.0651    1.3409 C   0  0  0  0  0  0  0  0  0  0  0  0
    1.1570    2.1852    1.6557 O   0  0  0  0  0  0  0  0  0  0  0  0
   -0.8747    3.0940    1.3124 O   0  0  0  0  0  0  0  0  0  0  0  0
   -2.1390    3.0099    0.9925 C   0  0  0  0  0  0  0  0  0  0  0  0
   -2.8964    4.1646    0.9979 C   0  0  0  0  0  0  0  0  0  0  0  0
   -4.2335    4.1174    0.6664 C   0  0  0  0  0  0  0  0  0  0  0  0
   -4.8089    2.9195    0.3313 C   0  0  0  0  0  0  0  0  0  0  0  0
   -4.0384    1.7597    0.3283 C   0  0  0  0  0  0  0  0  0  0  0  0
   -2.7015    1.7763    0.6547 C   0  0  0  0  0  0  0  0  0  0  0  0
    2.7620    0.1127    0.7939 C   0  0  0  0  0  0  0  0  0  0  0  0
    3.8491    0.3389   -0.0114 C   0  0  0  0  0  0  0  0  0  0  0  0
    6.4975   -0.1112   -1.0824 H   0  0  0  0  0  0  0  0  0  0  0  0
    6.8111    1.1485   -2.3499 H   0  0  0  0  0  0  0  0  0  0  0  0
    6.0274    1.5841   -0.7710 H   0  0  0  0  0  0  0  0  0  0  0  0
    2.3882    0.1825   -3.0573 H   0  0  0  0  0  0  0  0  0  0  0  0
    0.4138   -0.2270   -1.6261 H   0  0  0  0  0  0  0  0  0  0  0  0
    0.6207   -0.5026    2.1074 H   0  0  0  0  0  0  0  0  0  0  0  0
   -3.1790   -2.9525   -0.4895 H   0  0  0  0  0  0  0  0  0  0  0  0
   -2.3518   -3.6834    0.9098 H   0  0  0  0  0  0  0  0  0  0  0  0
   -1.5909   -4.8905   -1.0605 H   0  0  0  0  0  0  0  0  0  0  0  0
   -1.2721   -3.3574   -1.8897 H   0  0  0  0  0  0  0  0  0  0  0  0
    0.8483   -3.6836   -1.2005 H   0  0  0  0  0  0  0  0  0  0  0  0
    0.4176   -4.8951    0.0410 H   0  0  0  0  0  0  0  0  0  0  0  0
   -3.4698   -0.7559    0.0563 H   0  0  0  0  0  0  0  0  0  0  0  0
   -2.4290    5.1019    1.2642 H   0  0  0  0  0  0  0  0  0  0  0  0
   -4.8277    5.0082    0.6681 H   0  0  0  0  0  0  0  0  0  0  0  0
   -5.8498    2.8142    0.0621 H   0  0  0  0  0  0  0  0  0  0  0  0
   -4.5252    0.8420    0.0604 H   0  0  0  0  0  0  0  0  0  0  0  0
    2.8678    0.0874    1.8627 H   0  0  0  0  0  0  0  0  0  0  0  0
    4.8083    0.4965    0.4497 H   0  0  0  0  0  0  0  0  0  0  0  0
  1  2  1  0
  2  3  1  0
  3  4  2  0
  4  5  1  0
  5  6  2  0
  6  7  1  0
  7  8  1  0
  8  9  2  0
  9 10  1  0
 10 11  1  0
 11 12  1  0
 12 13  1  0
 13 14  2  0
  9 15  1  0
 15 16  1  0
 16 17  2  0
 17 18  1  0
 18 19  2  0
 18 20  1  0
 20 21  1  0
 21 22  2  0
 22 23  1  0
 23 24  2  0
 24 25  1  0
 25 26  2  0
  6 27  1  0
 27 28  2  0
 28  3  1  0
 17  7  1  0
 26 21  1  0
 13  8  1  0
 26 16  1  0
  1 29  1  0
  1 30  1  0
  1 31  1  0
  4 32  1  0
  5 33  1  0
  7 34  1  0
 10 35  1  0
 10 36  1  0
 11 37  1  0
 11 38  1  0
 12 39  1  0
 12 40  1  0
 15 41  1  0
 22 42  1  0
 23 43  1  0
 24 44  1  0
 25 45  1  0
 27 46  1  0
 28 47  1  0
M  END
