
     RDKit          3D

 58 61  0  0  0  0  0  0  0  0999 V2000
   -5.7733   -5.6665    0.2470 C   0  0  0  0  0  0  0  0  0  0  0  0
   -4.8853   -4.9847   -0.4292 O   0  0  0  0  0  0  0  0  0  0  0  0
   -4.0949   -3.9889   -0.6455 C   0  0  0  0  0  0  0  0  0  0  0  0
   -4.0901   -2.9347    0.3478 C   0  0  0  0  0  0  0  0  0  0  0  0
   -3.3761   -1.7815    0.3964 C   0  0  0  0  0  0  0  0  0  0  0  0
   -2.4517   -1.6413   -0.8299 C   0  0  0  0  0  0  0  0  0  0  0  0
   -1.6432   -0.4955   -0.8227 N   0  0  0  0  0  0  0  0  0  0  0  0
   -2.1708    0.5583   -1.7348 C   0  0  0  0  0  0  0  0  0  0  0  0
   -3.3590    0.8413   -1.7726 C   0  0  0  0  0  0  0  0  0  0  0  0
   -4.0109    1.9712   -2.4276 C   0  0  0  0  0  0  0  0  0  0  0  0
   -2.9310    2.7760   -3.0726 C   0  0  0  0  0  0  0  0  0  0  0  0
   -3.4925    3.8650   -3.7207 O   0  0  0  0  0  0  0  0  0  0  0  0
   -4.7570    4.2909   -3.9012 C   0  0  0  0  0  0  0  0  0  0  0  0
   -1.7593    2.4695   -3.0166 C   0  0  0  0  0  0  0  0  0  0  0  0
   -1.1068    1.3289   -2.3558 C   0  0  0  0  0  0  0  0  0  0  0  0
   -0.4548   -0.2346   -0.1363 C   0  0  0  0  0  0  0  0  0  0  0  0
   -0.1186    1.0338    0.3203 C   0  0  0  0  0  0  0  0  0  0  0  0
    1.0997    1.2927    0.8594 C   0  0  0  0  0  0  0  0  0  0  0  0
    2.0530    0.2930    0.9871 C   0  0  0  0  0  0  0  0  0  0  0  0
    3.3774    0.4071    1.4348 C   0  0  0  0  0  0  0  0  0  0  0  0
    4.0955   -0.5310    2.1206 C   0  0  0  0  0  0  0  0  0  0  0  0
    5.3600   -0.5835    2.5558 C   0  0  0  0  0  0  0  0  0  0  0  0
    6.1334    0.5019    2.2889 C   0  0  0  0  0  0  0  0  0  0  0  0
    7.5234    0.7410    2.5781 C   0  0  0  0  0  0  0  0  0  0  0  0
    7.8386    1.6766    3.3782 C   0  0  0  0  0  0  0  0  0  0  0  0
    7.0784    2.5963    4.1203 C   0  0  0  0  0  0  0  0  0  0  0  0
    6.3500    3.4428    4.8075 N   0  0  0  0  0  0  0  0  0  0  0  0
    9.3851    2.1862    3.1880 C   0  0  0  0  0  0  0  0  0  0  0  0
   10.3158    2.4919    3.0842 N   0  0  0  0  0  0  0  0  0  0  0  0
    5.4846    1.5414    1.5856 C   0  0  0  0  0  0  0  0  0  0  0  0
    4.2513    1.6152    1.1498 C   0  0  0  0  0  0  0  0  0  0  0  0
    1.6588   -1.0178    0.5040 C   0  0  0  0  0  0  0  0  0  0  0  0
    0.4633   -1.2824   -0.0358 C   0  0  0  0  0  0  0  0  0  0  0  0
   -2.5242   -2.5809   -1.6201 C   0  0  0  0  0  0  0  0  0  0  0  0
   -3.1784   -3.7316   -1.7511 C   0  0  0  0  0  0  0  0  0  0  0  0
   -5.4796   -6.7860    0.3457 H   0  0  0  0  0  0  0  0  0  0  0  0
   -6.8140   -5.6810   -0.2149 H   0  0  0  0  0  0  0  0  0  0  0  0
   -5.8554   -5.3313    1.3277 H   0  0  0  0  0  0  0  0  0  0  0  0
   -4.8266   -3.0687    1.1839 H   0  0  0  0  0  0  0  0  0  0  0  0
   -3.3804   -1.0252    1.0996 H   0  0  0  0  0  0  0  0  0  0  0  0
   -4.2105    0.2159   -1.2704 H   0  0  0  0  0  0  0  0  0  0  0  0
   -4.9725    2.1759   -2.4105 H   0  0  0  0  0  0  0  0  0  0  0  0
   -5.5285    3.8708   -3.2406 H   0  0  0  0  0  0  0  0  0  0  0  0
   -5.1651    4.2287   -4.9684 H   0  0  0  0  0  0  0  0  0  0  0  0
   -4.7224    5.4411   -3.7262 H   0  0  0  0  0  0  0  0  0  0  0  0
   -0.9204    3.0990   -3.4905 H   0  0  0  0  0  0  0  0  0  0  0  0
   -0.1158    1.1947   -2.3751 H   0  0  0  0  0  0  0  0  0  0  0  0
   -0.7944    1.8779    0.2545 H   0  0  0  0  0  0  0  0  0  0  0  0
    1.3609    2.3356    1.1900 H   0  0  0  0  0  0  0  0  0  0  0  0
    3.4779   -1.4549    2.3725 H   0  0  0  0  0  0  0  0  0  0  0  0
    5.7584   -1.4539    3.0842 H   0  0  0  0  0  0  0  0  0  0  0  0
    8.2815    0.1187    2.1302 H   0  0  0  0  0  0  0  0  0  0  0  0
    6.1558    2.4576    1.3527 H   0  0  0  0  0  0  0  0  0  0  0  0
    3.7615    2.3574    0.6177 H   0  0  0  0  0  0  0  0  0  0  0  0
    2.3997   -1.7854    0.6392 H   0  0  0  0  0  0  0  0  0  0  0  0
    0.2096   -2.3132   -0.3630 H   0  0  0  0  0  0  0  0  0  0  0  0
   -1.8182   -2.4714   -2.6493 H   0  0  0  0  0  0  0  0  0  0  0  0
   -3.0918   -4.4685   -2.4934 H   0  0  0  0  0  0  0  0  0  0  0  0
  1  2  1  0
  2  3  1  0
  3  4  2  0
  4  5  1  0
  5  6  2  0
  6  7  1  0
  7  8  1  0
  8  9  2  0
  9 10  1  0
 10 11  2  0
 11 12  1  0
 12 13  1  0
 11 14  1  0
 14 15  2  0
  7 16  1  0
 16 17  2  0
 17 18  1  0
 18 19  2  0
 19 20  1  0
 20 21  2  0
 21 22  1  0
 22 23  2  0
 23 24  1  0
 24 25  2  3
 25 26  1  0
 26 27  3  0
 25 28  1  0
 28 29  3  0
 23 30  1  0
 30 31  2  0
 19 32  1  0
 32 33  2  0
  6 34  1  0
 34 35  2  0
 35  3  1  0
 15  8  1  0
 33 16  1  0
 31 20  1  0
  1 36  1  0
  1 37  1  0
  1 38  1  0
  4 39  1  0
  5 40  1  0
  9 41  1  0
 10 42  1  0
 13 43  1  0
 13 44  1  0
 13 45  1  0
 14 46  1  0
 15 47  1  0
 17 48  1  0
 18 49  1  0
 21 50  1  0
 22 51  1  0
 24 52  1  0
 30 53  1  0
 31 54  1  0
 32 55  1  0
 33 56  1  0
 34 57  1  0
 35 58  1  0
M  END
