
     RDKit          3D

 26 28  0  0  0  0  0  0  0  0999 V2000
   -5.4484   -0.3524   -2.2011 N   0  0  0  0  0  0  0  0  0  0  0  0
   -4.3031   -0.2342   -2.0782 C   0  0  0  0  0  0  0  0  0  0  0  0
   -2.8886   -0.0703   -1.9093 C   0  0  0  0  0  0  0  0  0  0  0  0
   -2.1407    0.7537   -2.6577 N   0  0  0  0  0  0  0  0  0  0  0  0
   -0.8970    0.6664   -2.2463 N   0  0  0  0  0  0  0  0  0  0  0  0
   -0.7566   -0.1845   -1.2444 N   0  0  0  0  0  0  0  0  0  0  0  0
    0.4006   -0.5699   -0.5161 C   0  0  0  0  0  0  0  0  0  0  0  0
    0.9769   -1.8201   -0.5902 C   0  0  0  0  0  0  0  0  0  0  0  0
    2.0976   -2.1425    0.1361 C   0  0  0  0  0  0  0  0  0  0  0  0
    2.6516   -1.2154    0.9438 N   0  0  0  0  0  0  0  0  0  0  0  0
    2.1444    0.0066    1.0592 C   0  0  0  0  0  0  0  0  0  0  0  0
    2.7474    0.9186    1.8982 C   0  0  0  0  0  0  0  0  0  0  0  0
    2.2104    2.1946    2.0131 C   0  0  0  0  0  0  0  0  0  0  0  0
    2.9895    3.3557    3.0899 Cl  0  0  0  0  0  0  0  0  0  0  0  0
    1.0920    2.5390    1.2975 C   0  0  0  0  0  0  0  0  0  0  0  0
    0.5115    1.6189    0.4725 C   0  0  0  0  0  0  0  0  0  0  0  0
    1.0134    0.3395    0.3292 C   0  0  0  0  0  0  0  0  0  0  0  0
   -2.0164   -0.6609   -1.0195 C   0  0  0  0  0  0  0  0  0  0  0  0
   -2.3942   -1.5972   -0.0506 N   0  0  0  0  0  0  0  0  0  0  0  0
    0.5486   -2.5592   -1.2238 H   0  0  0  0  0  0  0  0  0  0  0  0
    2.5698   -3.1119    0.0981 H   0  0  0  0  0  0  0  0  0  0  0  0
    3.6276    0.6733    2.4719 H   0  0  0  0  0  0  0  0  0  0  0  0
    0.6998    3.5334    1.4072 H   0  0  0  0  0  0  0  0  0  0  0  0
   -0.3866    1.8434   -0.1236 H   0  0  0  0  0  0  0  0  0  0  0  0
   -3.3659   -1.6690    0.3129 H   0  0  0  0  0  0  0  0  0  0  0  0
   -1.6837   -2.2557    0.3314 H   0  0  0  0  0  0  0  0  0  0  0  0
  1  2  3  0
  2  3  1  0
  3  4  1  0
  4  5  2  0
  5  6  1  0
  6  7  1  0
  7  8  2  0
  8  9  1  0
  9 10  2  0
 10 11  1  0
 11 12  2  0
 12 13  1  0
 13 14  1  0
 13 15  2  0
 15 16  1  0
 16 17  2  0
  6 18  1  0
 18 19  1  0
 18  3  2  0
 17  7  1  0
 17 11  1  0
  8 20  1  0
  9 21  1  0
 12 22  1  0
 15 23  1  0
 16 24  1  0
 19 25  1  0
 19 26  1  0
M  END
