
     RDKit          3D

 64 70  0  0  0  0  0  0  0  0999 V2000
   -1.1980    1.3448   -1.9852 C   0  0  0  0  0  0  0  0  0  0  0  0
   -0.6094    0.5926   -0.8256 C   0  0  0  0  0  0  0  0  0  0  0  0
    0.7634    0.5996   -0.6738 C   0  0  0  0  0  0  0  0  0  0  0  0
    1.3972   -0.0796    0.3749 C   0  0  0  0  0  0  0  0  0  0  0  0
    2.8405   -0.0065    0.4577 C   0  0  0  0  0  0  0  0  0  0  0  0
    3.5030    0.3026    1.6092 C   0  0  0  0  0  0  0  0  0  0  0  0
    4.8975    0.3383    1.5660 C   0  0  0  0  0  0  0  0  0  0  0  0
    5.6022    0.0777    0.4255 C   0  0  0  0  0  0  0  0  0  0  0  0
    7.0590    0.1208    0.4039 C   0  0  0  0  0  0  0  0  0  0  0  0
    7.8391    0.4130    1.4726 N   0  0  0  0  0  0  0  0  0  0  0  0
    9.1131    0.3584    1.0833 C   0  0  0  0  0  0  0  0  0  0  0  0
   10.2812    0.5743    1.7940 C   0  0  0  0  0  0  0  0  0  0  0  0
   11.4871    0.4496    1.1327 C   0  0  0  0  0  0  0  0  0  0  0  0
   11.5771    0.1189   -0.2064 C   0  0  0  0  0  0  0  0  0  0  0  0
   10.3877   -0.0870   -0.8743 C   0  0  0  0  0  0  0  0  0  0  0  0
    9.1602    0.0245   -0.2628 C   0  0  0  0  0  0  0  0  0  0  0  0
    7.8712   -0.1090   -0.6265 N   0  0  0  0  0  0  0  0  0  0  0  0
    4.9265   -0.2342   -0.7357 C   0  0  0  0  0  0  0  0  0  0  0  0
    3.5465   -0.2749   -0.7142 C   0  0  0  0  0  0  0  0  0  0  0  0
    0.6287   -0.7679    1.2707 C   0  0  0  0  0  0  0  0  0  0  0  0
    1.2779   -1.5024    2.3823 C   0  0  0  0  0  0  0  0  0  0  0  0
   -0.7539   -0.7688    1.1095 C   0  0  0  0  0  0  0  0  0  0  0  0
   -1.3902   -0.0960    0.0703 C   0  0  0  0  0  0  0  0  0  0  0  0
   -2.8375   -0.1124   -0.0650 C   0  0  0  0  0  0  0  0  0  0  0  0
   -3.5464   -1.2840    0.0229 C   0  0  0  0  0  0  0  0  0  0  0  0
   -4.9384   -1.2988   -0.1007 C   0  0  0  0  0  0  0  0  0  0  0  0
   -5.6210   -0.1206   -0.3149 C   0  0  0  0  0  0  0  0  0  0  0  0
   -7.0811   -0.1525   -0.4425 C   0  0  0  0  0  0  0  0  0  0  0  0
   -7.8820   -1.2298   -0.3753 N   0  0  0  0  0  0  0  0  0  0  0  0
   -9.1716   -0.8838   -0.5365 C   0  0  0  0  0  0  0  0  0  0  0  0
  -10.3745   -1.5527   -0.5584 C   0  0  0  0  0  0  0  0  0  0  0  0
  -11.5810   -0.9125   -0.7502 C   0  0  0  0  0  0  0  0  0  0  0  0
  -11.5758    0.4463   -0.9257 C   0  0  0  0  0  0  0  0  0  0  0  0
  -10.3964    1.1439   -0.9096 C   0  0  0  0  0  0  0  0  0  0  0  0
   -9.1770    0.4829   -0.7140 C   0  0  0  0  0  0  0  0  0  0  0  0
   -7.8960    0.8961   -0.6519 N   0  0  0  0  0  0  0  0  0  0  0  0
   -4.9145    1.0529   -0.4032 C   0  0  0  0  0  0  0  0  0  0  0  0
   -3.5302    1.0566   -0.2788 C   0  0  0  0  0  0  0  0  0  0  0  0
   -1.1717    2.4291   -1.7908 H   0  0  0  0  0  0  0  0  0  0  0  0
   -0.4755    1.1405   -2.8320 H   0  0  0  0  0  0  0  0  0  0  0  0
   -2.1567    0.9452   -2.3167 H   0  0  0  0  0  0  0  0  0  0  0  0
    1.3779    1.1374   -1.3726 H   0  0  0  0  0  0  0  0  0  0  0  0
    2.9843    0.5138    2.5143 H   0  0  0  0  0  0  0  0  0  0  0  0
    5.4314    0.5847    2.4832 H   0  0  0  0  0  0  0  0  0  0  0  0
   10.2317    0.8356    2.8496 H   0  0  0  0  0  0  0  0  0  0  0  0
   12.3902    0.6184    1.6897 H   0  0  0  0  0  0  0  0  0  0  0  0
   12.5364    0.0247   -0.7128 H   0  0  0  0  0  0  0  0  0  0  0  0
   10.4291   -0.3469   -1.9228 H   0  0  0  0  0  0  0  0  0  0  0  0
    7.5621   -0.3629   -1.6044 H   0  0  0  0  0  0  0  0  0  0  0  0
    5.5144   -0.4349   -1.6203 H   0  0  0  0  0  0  0  0  0  0  0  0
    3.0297   -0.5164   -1.6146 H   0  0  0  0  0  0  0  0  0  0  0  0
    1.2690   -0.9195    3.3218 H   0  0  0  0  0  0  0  0  0  0  0  0
    0.7614   -2.4707    2.5815 H   0  0  0  0  0  0  0  0  0  0  0  0
    2.3022   -1.7627    2.0939 H   0  0  0  0  0  0  0  0  0  0  0  0
   -1.3544   -1.3157    1.8230 H   0  0  0  0  0  0  0  0  0  0  0  0
   -3.0712   -2.2257    0.1878 H   0  0  0  0  0  0  0  0  0  0  0  0
   -5.4903   -2.2276   -0.0301 H   0  0  0  0  0  0  0  0  0  0  0  0
  -10.3346   -2.6281   -0.4155 H   0  0  0  0  0  0  0  0  0  0  0  0
  -12.5065   -1.4787   -0.7604 H   0  0  0  0  0  0  0  0  0  0  0  0
  -12.5037    0.9592   -1.0759 H   0  0  0  0  0  0  0  0  0  0  0  0
  -10.3840    2.2130   -1.0470 H   0  0  0  0  0  0  0  0  0  0  0  0
   -7.5871    1.8799   -0.7514 H   0  0  0  0  0  0  0  0  0  0  0  0
   -5.4409    1.9757   -0.5703 H   0  0  0  0  0  0  0  0  0  0  0  0
   -3.0273    1.9928   -0.3516 H   0  0  0  0  0  0  0  0  0  0  0  0
  1  2  1  0
  2  3  2  0
  3  4  1  0
  4  5  1  0
  5  6  2  0
  6  7  1  0
  7  8  2  0
  8  9  1  0
  9 10  2  0
 10 11  1  0
 11 12  2  0
 12 13  1  0
 13 14  2  0
 14 15  1  0
 15 16  2  0
 16 17  1  0
  8 18  1  0
 18 19  2  0
  4 20  2  0
 20 21  1  0
 20 22  1  0
 22 23  2  0
 23 24  1  0
 24 25  2  0
 25 26  1  0
 26 27  2  0
 27 28  1  0
 28 29  2  0
 29 30  1  0
 30 31  2  0
 31 32  1  0
 32 33  2  0
 33 34  1  0
 34 35  2  0
 35 36  1  0
 27 37  1  0
 37 38  2  0
 23  2  1  0
 38 24  1  0
 19  5  1  0
 36 28  1  0
 17  9  1  0
 35 30  1  0
 16 11  1  0
  1 39  1  0
  1 40  1  0
  1 41  1  0
  3 42  1  0
  6 43  1  0
  7 44  1  0
 12 45  1  0
 13 46  1  0
 14 47  1  0
 15 48  1  0
 17 49  1  0
 18 50  1  0
 19 51  1  0
 21 52  1  0
 21 53  1  0
 21 54  1  0
 22 55  1  0
 25 56  1  0
 26 57  1  0
 31 58  1  0
 32 59  1  0
 33 60  1  0
 34 61  1  0
 36 62  1  0
 37 63  1  0
 38 64  1  0
M  END
