
     RDKit          3D

104111  0  0  0  0  0  0  0  0999 V2000
   -0.3900   11.5829   -0.4627 C   0  0  0  0  0  0  0  0  0  0  0  0
   -1.5354   10.7283   -0.4681 N   0  0  0  0  0  0  0  0  0  0  0  0
   -2.8521   11.2976   -0.5459 C   0  0  0  0  0  0  0  0  0  0  0  0
   -1.4102    9.3137   -0.3992 C   0  0  0  0  0  0  0  0  0  0  0  0
   -0.1721    8.7215   -0.3304 C   0  0  0  0  0  0  0  0  0  0  0  0
   -0.0307    7.3328   -0.2621 C   0  0  0  0  0  0  0  0  0  0  0  0
   -1.1321    6.5105   -0.2615 C   0  0  0  0  0  0  0  0  0  0  0  0
   -1.0547    5.0556   -0.1953 C   0  0  0  0  0  0  0  0  0  0  0  0
    0.0950    4.3966   -0.1367 C   0  0  0  0  0  0  0  0  0  0  0  0
   -0.0035    2.9422   -0.0750 C   0  0  0  0  0  0  0  0  0  0  0  0
   -1.1552    2.2662   -0.0663 N   0  0  0  0  0  0  0  0  0  0  0  0
   -1.2214    0.8958   -0.0112 C   0  0  0  0  0  0  0  0  0  0  0  0
   -2.5286    0.2643   -0.0103 C   0  0  0  0  0  0  0  0  0  0  0  0
   -2.6576   -1.0436    0.0438 C   0  0  0  0  0  0  0  0  0  0  0  0
   -3.8916   -1.7809    0.0504 C   0  0  0  0  0  0  0  0  0  0  0  0
   -3.8774   -3.1519    0.1113 C   0  0  0  0  0  0  0  0  0  0  0  0
   -5.0683   -3.8984    0.1156 C   0  0  0  0  0  0  0  0  0  0  0  0
   -6.2894   -3.2771    0.0566 C   0  0  0  0  0  0  0  0  0  0  0  0
   -7.4930   -3.9331   -0.0961 N   0  0  0  0  0  0  0  0  0  0  0  0
   -7.7723   -4.8350   -1.1834 C   0  0  0  0  0  0  0  0  0  0  0  0
   -6.9418   -5.7980   -1.6147 C   0  0  0  0  0  0  0  0  0  0  0  0
   -7.3702   -6.5883   -2.7057 C   0  0  0  0  0  0  0  0  0  0  0  0
   -8.5925   -6.3771   -3.3010 C   0  0  0  0  0  0  0  0  0  0  0  0
   -9.4166   -5.3729   -2.8227 C   0  0  0  0  0  0  0  0  0  0  0  0
   -9.0267   -4.6051   -1.7806 C   0  0  0  0  0  0  0  0  0  0  0  0
   -8.5055   -3.8750    0.9357 C   0  0  0  0  0  0  0  0  0  0  0  0
   -8.8975   -2.7788    1.6155 C   0  0  0  0  0  0  0  0  0  0  0  0
   -9.9063   -2.8639    2.5933 C   0  0  0  0  0  0  0  0  0  0  0  0
  -10.5079   -4.0639    2.8721 C   0  0  0  0  0  0  0  0  0  0  0  0
  -10.0949   -5.1608    2.1720 C   0  0  0  0  0  0  0  0  0  0  0  0
   -9.1171   -5.1088    1.2159 C   0  0  0  0  0  0  0  0  0  0  0  0
   -6.2743   -1.8724   -0.0060 C   0  0  0  0  0  0  0  0  0  0  0  0
   -5.0990   -1.1425   -0.0077 C   0  0  0  0  0  0  0  0  0  0  0  0
   -0.0164    0.2485    0.0352 C   0  0  0  0  0  0  0  0  0  0  0  0
    1.1976    0.9283    0.0272 C   0  0  0  0  0  0  0  0  0  0  0  0
    2.4466    0.1436    0.0751 C   0  0  0  0  0  0  0  0  0  0  0  0
    3.6205    0.7075    0.0651 C   0  0  0  0  0  0  0  0  0  0  0  0
    4.8355   -0.0614    0.1116 C   0  0  0  0  0  0  0  0  0  0  0  0
    6.0398    0.6049    0.0908 C   0  0  0  0  0  0  0  0  0  0  0  0
    7.2651   -0.0995    0.1310 C   0  0  0  0  0  0  0  0  0  0  0  0
    7.3082   -1.4439    0.1899 C   0  0  0  0  0  0  0  0  0  0  0  0
    8.4938   -2.2312    0.1994 N   0  0  0  0  0  0  0  0  0  0  0  0
    8.4939   -3.4155   -0.6264 C   0  0  0  0  0  0  0  0  0  0  0  0
    8.9212   -4.6427   -0.2776 C   0  0  0  0  0  0  0  0  0  0  0  0
    8.8640   -5.7040   -1.2090 C   0  0  0  0  0  0  0  0  0  0  0  0
    8.3785   -5.5304   -2.4853 C   0  0  0  0  0  0  0  0  0  0  0  0
    7.9388   -4.2707   -2.8451 C   0  0  0  0  0  0  0  0  0  0  0  0
    8.0019   -3.2544   -1.9298 C   0  0  0  0  0  0  0  0  0  0  0  0
    9.6834   -1.8125    0.8179 C   0  0  0  0  0  0  0  0  0  0  0  0
   10.2715   -0.6170    0.4654 C   0  0  0  0  0  0  0  0  0  0  0  0
   11.3681   -0.0835    1.1345 C   0  0  0  0  0  0  0  0  0  0  0  0
   11.8879   -0.7978    2.2026 C   0  0  0  0  0  0  0  0  0  0  0  0
   11.3091   -1.9921    2.5597 C   0  0  0  0  0  0  0  0  0  0  0  0
   10.2133   -2.5233    1.8935 C   0  0  0  0  0  0  0  0  0  0  0  0
    6.0743   -2.1287    0.2121 C   0  0  0  0  0  0  0  0  0  0  0  0
    4.8906   -1.4263    0.1728 C   0  0  0  0  0  0  0  0  0  0  0  0
    1.1733    2.2528   -0.0274 N   0  0  0  0  0  0  0  0  0  0  0  0
   -2.3928    7.1034   -0.3311 C   0  0  0  0  0  0  0  0  0  0  0  0
   -2.4959    8.4714   -0.3972 C   0  0  0  0  0  0  0  0  0  0  0  0
   -0.6243   12.6293   -0.6769 H   0  0  0  0  0  0  0  0  0  0  0  0
    0.3671   11.2529   -1.2183 H   0  0  0  0  0  0  0  0  0  0  0  0
    0.1463   11.5145    0.5224 H   0  0  0  0  0  0  0  0  0  0  0  0
   -2.8086   12.4196   -0.5331 H   0  0  0  0  0  0  0  0  0  0  0  0
   -3.3298   11.0048   -1.5251 H   0  0  0  0  0  0  0  0  0  0  0  0
   -3.4690   10.8999    0.2618 H   0  0  0  0  0  0  0  0  0  0  0  0
    0.7190    9.3321   -0.3280 H   0  0  0  0  0  0  0  0  0  0  0  0
    0.9634    6.8987   -0.2086 H   0  0  0  0  0  0  0  0  0  0  0  0
   -1.9976    4.4834   -0.1945 H   0  0  0  0  0  0  0  0  0  0  0  0
    1.0282    4.9183   -0.1354 H   0  0  0  0  0  0  0  0  0  0  0  0
   -3.4384    0.8522   -0.0541 H   0  0  0  0  0  0  0  0  0  0  0  0
   -1.7333   -1.6550    0.0894 H   0  0  0  0  0  0  0  0  0  0  0  0
   -2.9314   -3.6899    0.1576 H   0  0  0  0  0  0  0  0  0  0  0  0
   -4.9387   -4.9602    0.2152 H   0  0  0  0  0  0  0  0  0  0  0  0
   -5.9948   -6.0114   -1.1916 H   0  0  0  0  0  0  0  0  0  0  0  0
   -6.6995   -7.3469   -3.0347 H   0  0  0  0  0  0  0  0  0  0  0  0
   -8.8835   -7.0118   -4.1416 H   0  0  0  0  0  0  0  0  0  0  0  0
  -10.3658   -5.2556   -3.3320 H   0  0  0  0  0  0  0  0  0  0  0  0
   -9.6514   -3.8268   -1.4006 H   0  0  0  0  0  0  0  0  0  0  0  0
   -8.4327   -1.8421    1.4191 H   0  0  0  0  0  0  0  0  0  0  0  0
  -10.1890   -1.9579    3.1136 H   0  0  0  0  0  0  0  0  0  0  0  0
  -11.2753   -4.1344    3.6142 H   0  0  0  0  0  0  0  0  0  0  0  0
  -10.5434   -6.1304    2.3602 H   0  0  0  0  0  0  0  0  0  0  0  0
   -8.7776   -5.9558    0.6552 H   0  0  0  0  0  0  0  0  0  0  0  0
   -7.1687   -1.2838   -0.1082 H   0  0  0  0  0  0  0  0  0  0  0  0
   -5.1972   -0.0478   -0.0572 H   0  0  0  0  0  0  0  0  0  0  0  0
   -0.0047   -0.8294    0.0796 H   0  0  0  0  0  0  0  0  0  0  0  0
    2.3893   -0.9366    0.1201 H   0  0  0  0  0  0  0  0  0  0  0  0
    3.6476    1.7986    0.0197 H   0  0  0  0  0  0  0  0  0  0  0  0
    6.0362    1.6772    0.0437 H   0  0  0  0  0  0  0  0  0  0  0  0
    8.1313    0.5372    0.1325 H   0  0  0  0  0  0  0  0  0  0  0  0
    9.3018   -4.8397    0.6969 H   0  0  0  0  0  0  0  0  0  0  0  0
    9.2208   -6.6679   -0.8755 H   0  0  0  0  0  0  0  0  0  0  0  0
    8.3356   -6.3405   -3.1943 H   0  0  0  0  0  0  0  0  0  0  0  0
    7.5444   -4.0953   -3.8563 H   0  0  0  0  0  0  0  0  0  0  0  0
    7.6562   -2.2525   -2.2041 H   0  0  0  0  0  0  0  0  0  0  0  0
    9.9726   -0.0429   -0.3952 H   0  0  0  0  0  0  0  0  0  0  0  0
   11.8121    0.8594    0.8416 H   0  0  0  0  0  0  0  0  0  0  0  0
   12.7484   -0.3644    2.7150 H   0  0  0  0  0  0  0  0  0  0  0  0
   11.7389   -2.5294    3.3984 H   0  0  0  0  0  0  0  0  0  0  0  0
    9.7623   -3.4391    2.2163 H   0  0  0  0  0  0  0  0  0  0  0  0
    6.1226   -3.2042    0.2604 H   0  0  0  0  0  0  0  0  0  0  0  0
    3.9861   -2.0204    0.1936 H   0  0  0  0  0  0  0  0  0  0  0  0
   -3.2819    6.4576   -0.3312 H   0  0  0  0  0  0  0  0  0  0  0  0
   -3.4744    8.9306   -0.4508 H   0  0  0  0  0  0  0  0  0  0  0  0
  1  2  1  0
  2  3  1  0
  2  4  1  0
  4  5  2  0
  5  6  1  0
  6  7  2  0
  7  8  1  0
  8  9  2  0
  9 10  1  0
 10 11  2  0
 11 12  1  0
 12 13  1  0
 13 14  2  0
 14 15  1  0
 15 16  2  0
 16 17  1  0
 17 18  2  0
 18 19  1  0
 19 20  1  0
 20 21  2  0
 21 22  1  0
 22 23  2  0
 23 24  1  0
 24 25  2  0
 19 26  1  0
 26 27  2  0
 27 28  1  0
 28 29  2  0
 29 30  1  0
 30 31  2  0
 18 32  1  0
 32 33  2  0
 12 34  2  0
 34 35  1  0
 35 36  1  0
 36 37  2  0
 37 38  1  0
 38 39  2  0
 39 40  1  0
 40 41  2  0
 41 42  1  0
 42 43  1  0
 43 44  2  0
 44 45  1  0
 45 46  2  0
 46 47  1  0
 47 48  2  0
 42 49  1  0
 49 50  2  0
 50 51  1  0
 51 52  2  0
 52 53  1  0
 53 54  2  0
 41 55  1  0
 55 56  2  0
 35 57  2  0
  7 58  1  0
 58 59  2  0
 59  4  1  0
 57 10  1  0
 33 15  1  0
 56 38  1  0
 25 20  1  0
 31 26  1  0
 48 43  1  0
 54 49  1  0
  1 60  1  0
  1 61  1  0
  1 62  1  0
  3 63  1  0
  3 64  1  0
  3 65  1  0
  5 66  1  0
  6 67  1  0
  8 68  1  0
  9 69  1  0
 13 70  1  0
 14 71  1  0
 16 72  1  0
 17 73  1  0
 21 74  1  0
 22 75  1  0
 23 76  1  0
 24 77  1  0
 25 78  1  0
 27 79  1  0
 28 80  1  0
 29 81  1  0
 30 82  1  0
 31 83  1  0
 32 84  1  0
 33 85  1  0
 34 86  1  0
 36 87  1  0
 37 88  1  0
 39 89  1  0
 40 90  1  0
 44 91  1  0
 45 92  1  0
 46 93  1  0
 47 94  1  0
 48 95  1  0
 50 96  1  0
 51 97  1  0
 52 98  1  0
 53 99  1  0
 54100  1  0
 55101  1  0
 56102  1  0
 58103  1  0
 59104  1  0
M  END
