
     RDKit          3D

 47 51  0  0  0  0  0  0  0  0999 V2000
    1.1920    3.0944   -0.1544 C   0  0  0  0  0  0  0  0  0  0  0  0
   -0.2364    2.6860   -0.1657 C   0  0  0  0  0  0  0  0  0  0  0  0
   -1.2841    3.5239   -0.2741 C   0  0  0  0  0  0  0  0  0  0  0  0
   -2.5185    2.7977   -0.2544 C   0  0  0  0  0  0  0  0  0  0  0  0
   -3.8709    3.4254   -0.3549 C   0  0  0  0  0  0  0  0  0  0  0  0
   -2.2229    1.5428   -0.1367 N   0  0  0  0  0  4  0  0  0  0  0  0
   -0.8086    1.3485   -0.0702 C   0  0  0  0  0  0  0  0  0  0  0  0
   -0.3147    0.1367    0.0687 C   0  0  0  0  0  0  0  0  0  0  0  0
    1.1302   -0.0377    0.1648 C   0  0  0  0  0  0  0  0  0  0  0  0
    1.8995    0.4910    1.1918 C   0  0  0  0  0  0  0  0  0  0  0  0
    3.2559    0.3654    1.2864 C   0  0  0  0  0  0  0  0  0  0  0  0
    3.9138   -0.3466    0.2760 C   0  0  0  0  0  0  0  0  0  0  0  0
    5.2738   -0.5129    0.3053 C   0  0  0  0  0  0  0  0  0  0  0  0
    5.8865   -1.2140   -0.6973 C   0  0  0  0  0  0  0  0  0  0  0  0
    5.1149   -1.7254   -1.6966 C   0  0  0  0  0  0  0  0  0  0  0  0
    3.7831   -1.5721   -1.7407 N   0  0  0  0  0  0  0  0  0  0  0  0
    3.1563   -0.8731   -0.7448 C   0  0  0  0  0  0  0  0  0  0  0  0
    1.8182   -0.7185   -0.7882 N   0  0  0  0  0  0  0  0  0  0  0  0
   -1.1534   -1.0785    0.1519 C   0  0  0  0  0  0  0  0  0  0  0  0
   -0.8551   -2.4159    0.3046 C   0  0  0  0  0  0  0  0  0  0  0  0
    0.4693   -3.0734    0.4434 C   0  0  0  0  0  0  0  0  0  0  0  0
   -2.0766   -3.0920    0.3226 C   0  0  0  0  0  0  0  0  0  0  0  0
   -3.0814   -2.1678    0.1833 C   0  0  0  0  0  0  0  0  0  0  0  0
   -4.5312   -2.5026    0.1560 C   0  0  0  0  0  0  0  0  0  0  0  0
   -2.4980   -0.9396    0.0804 N   0  0  0  0  0  0  0  0  0  0  0  0
   -3.2154    0.3826   -0.0805 B   0  0  0  0  0  4  0  0  0  0  0  0
   -4.0467    0.3477   -1.2817 F   0  0  0  0  0  0  0  0  0  0  0  0
   -4.0939    0.6385    1.0676 F   0  0  0  0  0  0  0  0  0  0  0  0
    1.2165    4.1217   -0.6570 H   0  0  0  0  0  0  0  0  0  0  0  0
    1.5261    3.2507    0.8672 H   0  0  0  0  0  0  0  0  0  0  0  0
    1.7859    2.4372   -0.7949 H   0  0  0  0  0  0  0  0  0  0  0  0
   -1.1585    4.5962   -0.3618 H   0  0  0  0  0  0  0  0  0  0  0  0
   -4.6733    2.6850   -0.3420 H   0  0  0  0  0  0  0  0  0  0  0  0
   -4.0367    4.0756    0.5525 H   0  0  0  0  0  0  0  0  0  0  0  0
   -3.8646    4.1019   -1.2170 H   0  0  0  0  0  0  0  0  0  0  0  0
    1.3770    1.0424    1.9714 H   0  0  0  0  0  0  0  0  0  0  0  0
    3.8640    0.7617    2.0630 H   0  0  0  0  0  0  0  0  0  0  0  0
    5.8250   -0.0705    1.1442 H   0  0  0  0  0  0  0  0  0  0  0  0
    6.9616   -1.3231   -0.6377 H   0  0  0  0  0  0  0  0  0  0  0  0
    5.6339   -2.2820   -2.4852 H   0  0  0  0  0  0  0  0  0  0  0  0
    0.3039   -4.0853    0.9088 H   0  0  0  0  0  0  0  0  0  0  0  0
    0.8553   -3.2826   -0.5542 H   0  0  0  0  0  0  0  0  0  0  0  0
    1.1544   -2.5569    1.1376 H   0  0  0  0  0  0  0  0  0  0  0  0
   -2.1716   -4.1700    0.4308 H   0  0  0  0  0  0  0  0  0  0  0  0
   -4.7584   -3.2189    0.9628 H   0  0  0  0  0  0  0  0  0  0  0  0
   -4.7670   -2.9877   -0.8110 H   0  0  0  0  0  0  0  0  0  0  0  0
   -5.1594   -1.6059    0.2600 H   0  0  0  0  0  0  0  0  0  0  0  0
  1  2  1  0
  2  3  2  0
  3  4  1  0
  4  5  1  0
  4  6  2  0
  6  7  1  0
  7  8  2  0
  8  9  1  0
  9 10  2  0
 10 11  1  0
 11 12  2  0
 12 13  1  0
 13 14  2  0
 14 15  1  0
 15 16  2  0
 16 17  1  0
 17 18  2  0
  8 19  1  0
 19 20  2  0
 20 21  1  0
 20 22  1  0
 22 23  2  0
 23 24  1  0
 23 25  1  0
 25 26  1  0
 26 27  1  0
 26 28  1  0
  7  2  1  0
 18  9  1  0
 25 19  1  0
 26  6  1  0
 17 12  1  0
  1 29  1  0
  1 30  1  0
  1 31  1  0
  3 32  1  0
  5 33  1  0
  5 34  1  0
  5 35  1  0
 10 36  1  0
 11 37  1  0
 13 38  1  0
 14 39  1  0
 15 40  1  0
 21 41  1  0
 21 42  1  0
 21 43  1  0
 22 44  1  0
 24 45  1  0
 24 46  1  0
 24 47  1  0
M  CHG  2   6   1  26  -1
M  END
