
     RDKit          3D

 57 61  0  0  0  0  0  0  0  0999 V2000
   -8.6330   -0.0321   -1.2635 C   0  0  0  0  0  0  0  0  0  0  0  0
   -7.9286   -0.3047    0.0277 C   0  0  0  0  0  0  0  0  0  0  0  0
   -7.0196    0.7352    0.4567 N   0  0  0  0  0  0  0  0  0  0  0  0
   -7.6552    1.9761    0.8985 C   0  0  0  0  0  0  0  0  0  0  0  0
   -8.2855    2.7573   -0.2056 C   0  0  0  0  0  0  0  0  0  0  0  0
   -5.5955    0.5888    0.4399 C   0  0  0  0  0  0  0  0  0  0  0  0
   -4.7339    1.5785    0.8633 C   0  0  0  0  0  0  0  0  0  0  0  0
   -3.3513    1.4412    0.8436 C   0  0  0  0  0  0  0  0  0  0  0  0
   -2.7919    0.2709    0.3836 C   0  0  0  0  0  0  0  0  0  0  0  0
   -1.4249    0.1035    0.3510 C   0  0  0  0  0  0  0  0  0  0  0  0
   -0.9452   -1.1016   -0.1254 C   0  0  0  0  0  0  0  0  0  0  0  0
    0.4996   -1.3625   -0.1947 C   0  0  0  0  0  0  0  0  0  0  0  0
    1.5004   -0.5415    0.1640 N   0  0  0  0  0  0  0  0  0  0  0  0
    2.6637   -1.1750   -0.0637 C   0  0  0  0  0  0  0  0  0  0  0  0
    3.9957   -0.7965    0.1239 C   0  0  0  0  0  0  0  0  0  0  0  0
    5.0251   -1.6528   -0.1978 C   0  0  0  0  0  0  0  0  0  0  0  0
    6.4465   -1.3159   -0.0300 C   0  0  0  0  0  0  0  0  0  0  0  0
    7.2710   -2.2446   -0.1419 O   0  0  0  0  0  0  0  0  0  0  0  0
    6.8852   -0.0118    0.2448 N   0  0  0  0  0  0  0  0  0  0  0  0
    8.2138    0.4421    0.4286 C   0  0  0  0  0  0  0  0  0  0  0  0
    9.3156   -0.3799    0.3590 C   0  0  0  0  0  0  0  0  0  0  0  0
   10.6038    0.1111    0.5478 C   0  0  0  0  0  0  0  0  0  0  0  0
   10.7901    1.4316    0.8076 C   0  0  0  0  0  0  0  0  0  0  0  0
    9.6957    2.2394    0.8752 C   0  0  0  0  0  0  0  0  0  0  0  0
    8.4328    1.7852    0.6951 C   0  0  0  0  0  0  0  0  0  0  0  0
    7.0613    2.8686    0.7924 Cl  0  0  0  0  0  0  0  0  0  0  0  0
    4.6798   -2.9062   -0.7156 C   0  0  0  0  0  0  0  0  0  0  0  0
    3.3670   -3.2753   -0.8987 C   0  0  0  0  0  0  0  0  0  0  0  0
    2.3407   -2.4137   -0.5748 C   0  0  0  0  0  0  0  0  0  0  0  0
    1.0338   -2.4692   -0.6304 O   0  0  0  0  0  0  0  0  0  0  0  0
   -1.8668   -2.0425   -0.5307 C   0  0  0  0  0  0  0  0  0  0  0  0
   -1.3630   -3.1376   -0.9618 O   0  0  0  0  0  0  0  0  0  0  0  0
   -3.1660   -1.8782   -0.4977 O   0  0  0  0  0  0  0  0  0  0  0  0
   -3.6352   -0.7360   -0.0467 C   0  0  0  0  0  0  0  0  0  0  0  0
   -5.0240   -0.5744   -0.0172 C   0  0  0  0  0  0  0  0  0  0  0  0
   -8.6196   -0.9728   -1.9046 H   0  0  0  0  0  0  0  0  0  0  0  0
   -9.7050    0.1276   -1.0530 H   0  0  0  0  0  0  0  0  0  0  0  0
   -8.1349    0.7351   -1.8499 H   0  0  0  0  0  0  0  0  0  0  0  0
   -7.4948   -1.3180   -0.0056 H   0  0  0  0  0  0  0  0  0  0  0  0
   -8.6790   -0.3693    0.8853 H   0  0  0  0  0  0  0  0  0  0  0  0
   -8.5255    1.6439    1.5673 H   0  0  0  0  0  0  0  0  0  0  0  0
   -7.0206    2.5761    1.5705 H   0  0  0  0  0  0  0  0  0  0  0  0
   -9.2527    2.3894   -0.5449 H   0  0  0  0  0  0  0  0  0  0  0  0
   -8.4496    3.7912    0.1950 H   0  0  0  0  0  0  0  0  0  0  0  0
   -7.6237    2.9135   -1.0901 H   0  0  0  0  0  0  0  0  0  0  0  0
   -5.1141    2.5103    1.2270 H   0  0  0  0  0  0  0  0  0  0  0  0
   -2.6900    2.2228    1.1776 H   0  0  0  0  0  0  0  0  0  0  0  0
   -0.7923    0.8846    0.6838 H   0  0  0  0  0  0  0  0  0  0  0  0
    4.2243    0.1922    0.5343 H   0  0  0  0  0  0  0  0  0  0  0  0
    6.1191    0.7220    0.3202 H   0  0  0  0  0  0  0  0  0  0  0  0
    9.2375   -1.4441    0.1550 H   0  0  0  0  0  0  0  0  0  0  0  0
   11.4729   -0.5399    0.4927 H   0  0  0  0  0  0  0  0  0  0  0  0
   11.7597    1.8798    0.9643 H   0  0  0  0  0  0  0  0  0  0  0  0
    9.8278    3.2975    1.0825 H   0  0  0  0  0  0  0  0  0  0  0  0
    5.5036   -3.5710   -0.9652 H   0  0  0  0  0  0  0  0  0  0  0  0
    3.1750   -4.2578   -1.3025 H   0  0  0  0  0  0  0  0  0  0  0  0
   -5.6202   -1.3909   -0.3693 H   0  0  0  0  0  0  0  0  0  0  0  0
  1  2  1  0
  2  3  1  0
  3  4  1  0
  4  5  1  0
  3  6  1  0
  6  7  2  0
  7  8  1  0
  8  9  2  0
  9 10  1  0
 10 11  2  0
 11 12  1  0
 12 13  2  0
 13 14  1  0
 14 15  2  0
 15 16  1  0
 16 17  1  0
 17 18  2  0
 17 19  1  0
 19 20  1  0
 20 21  2  0
 21 22  1  0
 22 23  2  0
 23 24  1  0
 24 25  2  0
 25 26  1  0
 16 27  2  0
 27 28  1  0
 28 29  2  0
 29 30  1  0
 11 31  1  0
 31 32  2  0
 31 33  1  0
 33 34  1  0
 34 35  2  0
 35  6  1  0
 34  9  1  0
 30 12  1  0
 29 14  1  0
 25 20  1  0
  1 36  1  0
  1 37  1  0
  1 38  1  0
  2 39  1  0
  2 40  1  0
  4 41  1  0
  4 42  1  0
  5 43  1  0
  5 44  1  0
  5 45  1  0
  7 46  1  0
  8 47  1  0
 10 48  1  0
 15 49  1  0
 19 50  1  0
 21 51  1  0
 22 52  1  0
 23 53  1  0
 24 54  1  0
 27 55  1  0
 28 56  1  0
 35 57  1  0
M  END
