
     RDKit          3D

 81 88  0  0  0  0  0  0  0  0999 V2000
   -4.2996    3.0838   -0.8891 C   0  0  0  0  0  0  0  0  0  0  0  0
   -3.2519    3.9884   -0.6322 O   0  0  0  0  0  0  0  0  0  0  0  0
   -1.9715    3.5557   -0.2599 C   0  0  0  0  0  0  0  0  0  0  0  0
   -1.6761    2.2048   -0.1261 C   0  0  0  0  0  0  0  0  0  0  0  0
   -0.4321    1.7661    0.2389 C   0  0  0  0  0  0  0  0  0  0  0  0
    0.5260    2.7490    0.4662 C   0  0  0  0  0  0  0  0  0  0  0  0
    0.2240    4.1144    0.3284 C   0  0  0  0  0  0  0  0  0  0  0  0
   -1.0275    4.5291   -0.0351 C   0  0  0  0  0  0  0  0  0  0  0  0
   -1.3830    5.9379   -0.1883 C   0  0  0  0  0  0  0  0  0  0  0  0
   -2.5488    6.4703    0.3211 C   0  0  0  0  0  0  0  0  0  0  0  0
   -2.8742    7.8109    0.1681 C   0  0  0  0  0  0  0  0  0  0  0  0
   -2.0182    8.6496   -0.5103 C   0  0  0  0  0  0  0  0  0  0  0  0
   -2.3744    9.9633   -0.6395 F   0  0  0  0  0  0  0  0  0  0  0  0
   -0.8645    8.1371   -1.0179 C   0  0  0  0  0  0  0  0  0  0  0  0
   -0.5364    6.7916   -0.8652 C   0  0  0  0  0  0  0  0  0  0  0  0
    1.8142    2.1577    0.8579 C   0  0  0  0  0  0  0  0  0  0  0  0
    1.5985    0.7278    0.6458 C   0  0  0  0  0  0  0  0  0  0  0  0
    2.5402   -0.2827    0.7153 C   0  0  0  0  0  0  0  0  0  0  0  0
    2.1251   -1.5547    0.5022 C   0  0  0  0  0  0  0  0  0  0  0  0
    0.7925   -1.8456    0.2319 C   0  0  0  0  0  0  0  0  0  0  0  0
   -0.1443   -0.8190    0.1730 C   0  0  0  0  0  0  0  0  0  0  0  0
    0.2629    0.4840    0.3719 C   0  0  0  0  0  0  0  0  0  0  0  0
   -1.4475   -1.4487    0.0053 C   0  0  0  0  0  0  0  0  0  0  0  0
   -2.7523   -1.0370   -0.0070 C   0  0  0  0  0  0  0  0  0  0  0  0
   -3.7895   -1.9507   -0.0801 C   0  0  0  0  0  0  0  0  0  0  0  0
   -5.0987   -1.4804   -0.0925 O   0  0  0  0  0  0  0  0  0  0  0  0
   -5.4772   -0.1414   -0.0365 C   0  0  0  0  0  0  0  0  0  0  0  0
   -3.5932   -3.3034   -0.1412 C   0  0  0  0  0  0  0  0  0  0  0  0
   -4.6742   -4.2629   -0.2173 C   0  0  0  0  0  0  0  0  0  0  0  0
   -4.6119   -5.3105   -1.1107 C   0  0  0  0  0  0  0  0  0  0  0  0
   -5.6306   -6.2320   -1.1972 C   0  0  0  0  0  0  0  0  0  0  0  0
   -6.7556   -6.1593   -0.4052 C   0  0  0  0  0  0  0  0  0  0  0  0
   -7.7413   -7.0833   -0.5154 F   0  0  0  0  0  0  0  0  0  0  0  0
   -6.8143   -5.1090    0.4880 C   0  0  0  0  0  0  0  0  0  0  0  0
   -5.8013   -4.1788    0.5854 C   0  0  0  0  0  0  0  0  0  0  0  0
   -2.2904   -3.7357   -0.1270 C   0  0  0  0  0  0  0  0  0  0  0  0
   -1.2474   -2.8138   -0.0548 C   0  0  0  0  0  0  0  0  0  0  0  0
    0.1838   -3.1674   -0.0386 C   0  0  0  0  0  0  0  0  0  0  0  0
    3.3169   -2.4140    0.6280 C   0  0  0  0  0  0  0  0  0  0  0  0
    3.3236   -3.6522    0.4955 O   0  0  0  0  0  0  0  0  0  0  0  0
    4.4435   -1.6091    0.9215 N   0  0  0  0  0  0  0  0  0  0  0  0
    5.8293   -1.9667    1.1368 C   0  0  0  0  0  0  0  0  0  0  0  0
    6.5767   -1.9427   -0.1806 C   0  0  0  0  0  0  0  0  0  0  0  0
    8.0391   -2.3241    0.0721 C   0  0  0  0  0  0  0  0  0  0  0  0
    8.8202   -2.3112   -1.2243 C   0  0  0  0  0  0  0  0  0  0  0  0
    8.6578   -1.2970    0.9928 C   0  0  0  0  0  0  0  0  0  0  0  0
    3.9760   -0.2525    0.9821 C   0  0  0  0  0  0  0  0  0  0  0  0
    4.6680    0.7603    1.2183 O   0  0  0  0  0  0  0  0  0  0  0  0
   -5.0985    3.6662   -1.4215 H   0  0  0  0  0  0  0  0  0  0  0  0
   -4.7116    2.7181    0.0509 H   0  0  0  0  0  0  0  0  0  0  0  0
   -3.9674    2.2657   -1.5768 H   0  0  0  0  0  0  0  0  0  0  0  0
   -2.4473    1.5432   -0.3795 H   0  0  0  0  0  0  0  0  0  0  0  0
    0.9790    4.8659    0.5083 H   0  0  0  0  0  0  0  0  0  0  0  0
   -3.2122    5.8009    0.8518 H   0  0  0  0  0  0  0  0  0  0  0  0
   -3.7972    8.2014    0.5790 H   0  0  0  0  0  0  0  0  0  0  0  0
   -0.1749    8.7723   -1.5542 H   0  0  0  0  0  0  0  0  0  0  0  0
    0.3883    6.3778   -1.2714 H   0  0  0  0  0  0  0  0  0  0  0  0
    2.6087    2.5928    0.2184 H   0  0  0  0  0  0  0  0  0  0  0  0
    1.9910    2.3988    1.9450 H   0  0  0  0  0  0  0  0  0  0  0  0
   -3.0302   -0.0058    0.1000 H   0  0  0  0  0  0  0  0  0  0  0  0
   -5.3253    0.3756   -1.0050 H   0  0  0  0  0  0  0  0  0  0  0  0
   -6.5527   -0.0138    0.2460 H   0  0  0  0  0  0  0  0  0  0  0  0
   -4.9060    0.3447    0.7967 H   0  0  0  0  0  0  0  0  0  0  0  0
   -3.7251   -5.3833   -1.7477 H   0  0  0  0  0  0  0  0  0  0  0  0
   -5.5397   -7.0484   -1.9209 H   0  0  0  0  0  0  0  0  0  0  0  0
   -7.6931   -5.0399    1.1169 H   0  0  0  0  0  0  0  0  0  0  0  0
   -5.8637   -3.3580    1.2941 H   0  0  0  0  0  0  0  0  0  0  0  0
   -2.1222   -4.7996   -0.1739 H   0  0  0  0  0  0  0  0  0  0  0  0
    0.5390   -3.6237   -0.9843 H   0  0  0  0  0  0  0  0  0  0  0  0
    0.3676   -3.8039    0.8408 H   0  0  0  0  0  0  0  0  0  0  0  0
    6.3201   -1.2048    1.7921 H   0  0  0  0  0  0  0  0  0  0  0  0
    5.8858   -2.9362    1.6342 H   0  0  0  0  0  0  0  0  0  0  0  0
    6.5868   -0.9261   -0.6059 H   0  0  0  0  0  0  0  0  0  0  0  0
    6.1293   -2.6161   -0.9328 H   0  0  0  0  0  0  0  0  0  0  0  0
    8.1102   -3.2964    0.5706 H   0  0  0  0  0  0  0  0  0  0  0  0
    8.2367   -2.7757   -2.0449 H   0  0  0  0  0  0  0  0  0  0  0  0
    9.7561   -2.9018   -1.0278 H   0  0  0  0  0  0  0  0  0  0  0  0
    9.1172   -1.2740   -1.4428 H   0  0  0  0  0  0  0  0  0  0  0  0
    8.3825   -0.2534    0.7058 H   0  0  0  0  0  0  0  0  0  0  0  0
    8.4090   -1.5032    2.0551 H   0  0  0  0  0  0  0  0  0  0  0  0
    9.7698   -1.3554    0.8296 H   0  0  0  0  0  0  0  0  0  0  0  0
  1  2  1  0
  2  3  1  0
  3  4  2  0
  4  5  1  0
  5  6  2  0
  6  7  1  0
  7  8  2  0
  8  9  1  0
  9 10  2  0
 10 11  1  0
 11 12  2  0
 12 13  1  0
 12 14  1  0
 14 15  2  0
  6 16  1  0
 16 17  1  0
 17 18  2  0
 18 19  1  0
 19 20  2  0
 20 21  1  0
 21 22  2  0
 21 23  1  0
 23 24  2  0
 24 25  1  0
 25 26  1  0
 26 27  1  0
 25 28  2  0
 28 29  1  0
 29 30  2  0
 30 31  1  0
 31 32  2  0
 32 33  1  0
 32 34  1  0
 34 35  2  0
 28 36  1  0
 36 37  2  0
 37 38  1  0
 19 39  1  0
 39 40  2  0
 39 41  1  0
 41 42  1  0
 42 43  1  0
 43 44  1  0
 44 45  1  0
 44 46  1  0
 41 47  1  0
 47 48  2  0
  8  3  1  0
 15  9  1  0
 22 17  1  0
 37 23  1  0
 22  5  1  0
 35 29  1  0
 47 18  1  0
 38 20  1  0
  1 49  1  0
  1 50  1  0
  1 51  1  0
  4 52  1  0
  7 53  1  0
 10 54  1  0
 11 55  1  0
 14 56  1  0
 15 57  1  0
 16 58  1  0
 16 59  1  0
 24 60  1  0
 27 61  1  0
 27 62  1  0
 27 63  1  0
 30 64  1  0
 31 65  1  0
 34 66  1  0
 35 67  1  0
 36 68  1  0
 38 69  1  0
 38 70  1  0
 42 71  1  0
 42 72  1  0
 43 73  1  0
 43 74  1  0
 44 75  1  0
 45 76  1  0
 45 77  1  0
 45 78  1  0
 46 79  1  0
 46 80  1  0
 46 81  1  0
M  END
