
     RDKit          3D

101105  0  0  0  0  0  0  0  0999 V2000
   -7.2231   -2.8401    5.3372 C   0  0  0  0  0  0  0  0  0  0  0  0
   -7.2349   -3.3172    4.0563 O   0  0  0  0  0  0  0  0  0  0  0  0
   -6.0869   -3.0788    3.3368 C   0  0  0  0  0  0  0  0  0  0  0  0
   -5.8284   -1.6195    3.2079 C   0  0  0  0  0  0  0  0  0  0  0  0
   -4.5924   -1.3618    2.4140 C   0  0  0  0  0  0  0  0  0  0  0  0
   -3.8105   -2.2735    1.8737 C   0  0  0  0  0  0  0  0  0  0  0  0
   -2.7266   -1.5650    1.1959 C   0  0  0  0  0  0  0  0  0  0  0  0
   -2.9622   -0.2599    1.3948 N   0  0  0  0  0  0  0  0  0  0  0  0
   -4.0540   -0.0637    2.1109 C   0  0  0  0  0  0  0  0  0  0  0  0
   -4.4223    1.2589    2.4080 C   0  0  0  0  0  0  0  0  0  0  0  0
   -4.0455    2.3074    1.5543 C   0  0  0  0  0  0  0  0  0  0  0  0
   -3.0953    2.3018    0.5266 C   0  0  0  0  0  0  0  0  0  0  0  0
   -1.7991    1.9232    0.5514 N   0  0  0  0  0  0  0  0  0  0  0  0
   -1.3529    1.9911   -0.7068 C   0  0  0  0  0  0  0  0  0  0  0  0
   -2.3567    2.4313   -1.5760 C   0  0  0  0  0  0  0  0  0  0  0  0
   -3.4751    2.6307   -0.7774 C   0  0  0  0  0  0  0  0  0  0  0  0
   -4.7521    3.1638   -1.3655 C   0  0  0  0  0  0  0  0  0  0  0  0
   -4.9397    4.6140   -1.3136 C   0  0  0  0  0  0  0  0  0  0  0  0
   -5.1016    5.1590   -0.0889 O   0  0  0  0  0  0  0  0  0  0  0  0
   -6.3448    4.8431    0.4789 C   0  0  0  0  0  0  0  0  0  0  0  0
   -0.0917    1.5908   -1.2352 C   0  0  0  0  0  0  0  0  0  0  0  0
    0.4604    0.3934   -0.9847 N   0  0  0  0  0  0  0  0  0  0  0  0
    1.5876    0.2183   -1.5839 C   0  0  0  0  0  0  0  0  0  0  0  0
    2.2963   -0.9925   -1.4202 C   0  0  0  0  0  0  0  0  0  0  0  0
    3.6553   -0.9795   -1.6515 O   0  0  0  0  0  0  0  0  0  0  0  0
    4.5846   -0.4549   -0.7723 C   0  0  0  0  0  0  0  0  0  0  0  0
    4.1946    0.0492    0.3076 O   0  0  0  0  0  0  0  0  0  0  0  0
    6.0405   -0.4617   -1.0570 C   0  0  0  0  0  0  0  0  0  0  0  0
    6.8469    0.1942   -0.0854 N   0  0  0  0  0  0  0  0  0  0  0  0
    6.8745   -0.2110    1.2745 C   0  0  0  0  0  0  0  0  0  0  0  0
    6.1808   -1.1764    1.7022 O   0  0  0  0  0  0  0  0  0  0  0  0
    7.6778    0.4460    2.2066 O   0  0  0  0  0  0  0  0  0  0  0  0
    7.7757    0.1314    3.5664 C   0  0  0  0  0  0  0  0  0  0  0  0
    8.7884    1.1199    4.1696 C   0  0  0  0  0  0  0  0  0  0  0  0
    6.4622    0.4380    4.2976 C   0  0  0  0  0  0  0  0  0  0  0  0
    8.1844   -1.2717    3.8693 C   0  0  0  0  0  0  0  0  0  0  0  0
    1.5969   -2.1586   -1.0328 C   0  0  0  0  0  0  0  0  0  0  0  0
    0.2940   -2.2599   -0.5609 C   0  0  0  0  0  0  0  0  0  0  0  0
   -0.3402   -1.6373    0.4533 N   0  0  0  0  0  0  0  0  0  0  0  0
   -1.6176   -2.0198    0.4205 C   0  0  0  0  0  0  0  0  0  0  0  0
   -1.8526   -2.9319   -0.6299 C   0  0  0  0  0  0  0  0  0  0  0  0
   -0.6446   -3.0779   -1.2424 C   0  0  0  0  0  0  0  0  0  0  0  0
   -0.4113   -3.9930   -2.4244 C   0  0  0  0  0  0  0  0  0  0  0  0
   -0.2860   -3.1013   -3.6420 C   0  0  0  0  0  0  0  0  0  0  0  0
   -0.0599   -3.8079   -4.8144 O   0  0  0  0  0  0  0  0  0  0  0  0
   -1.0701   -4.7028   -5.1374 C   0  0  0  0  0  0  0  0  0  0  0  0
    1.8718    1.4281   -2.3495 C   0  0  0  0  0  0  0  0  0  0  0  0
    3.0365    1.6836   -3.2130 C   0  0  0  0  0  0  0  0  0  0  0  0
    2.9200    2.7647   -4.2343 C   0  0  0  0  0  0  0  0  0  0  0  0
    2.1113    2.6165   -5.2774 O   0  0  0  0  0  0  0  0  0  0  0  0
    0.8052    2.3981   -5.2284 C   0  0  0  0  0  0  0  0  0  0  0  0
    0.8612    2.2515   -2.1378 C   0  0  0  0  0  0  0  0  0  0  0  0
   -8.1968   -3.1172    5.8138 H   0  0  0  0  0  0  0  0  0  0  0  0
   -7.0780   -1.7381    5.3902 H   0  0  0  0  0  0  0  0  0  0  0  0
   -6.4154   -3.3149    5.9365 H   0  0  0  0  0  0  0  0  0  0  0  0
   -6.2337   -3.5328    2.3146 H   0  0  0  0  0  0  0  0  0  0  0  0
   -5.2678   -3.6340    3.8418 H   0  0  0  0  0  0  0  0  0  0  0  0
   -6.6750   -1.1403    2.7080 H   0  0  0  0  0  0  0  0  0  0  0  0
   -5.6376   -1.1255    4.1915 H   0  0  0  0  0  0  0  0  0  0  0  0
   -3.9466   -3.3689    1.9228 H   0  0  0  0  0  0  0  0  0  0  0  0
   -4.9944    1.4116    3.3124 H   0  0  0  0  0  0  0  0  0  0  0  0
   -4.6520    3.2092    1.7827 H   0  0  0  0  0  0  0  0  0  0  0  0
   -1.2130    1.6663    1.4739 H   0  0  0  0  0  0  0  0  0  0  0  0
   -2.3224    2.6112   -2.6639 H   0  0  0  0  0  0  0  0  0  0  0  0
   -5.5776    2.6510   -0.8182 H   0  0  0  0  0  0  0  0  0  0  0  0
   -4.8425    2.8154   -2.4214 H   0  0  0  0  0  0  0  0  0  0  0  0
   -5.8672    4.8492   -1.9159 H   0  0  0  0  0  0  0  0  0  0  0  0
   -4.1136    5.1621   -1.8626 H   0  0  0  0  0  0  0  0  0  0  0  0
   -6.3447    5.3296    1.4730 H   0  0  0  0  0  0  0  0  0  0  0  0
   -7.1705    5.3031   -0.1488 H   0  0  0  0  0  0  0  0  0  0  0  0
   -6.5447    3.7740    0.5122 H   0  0  0  0  0  0  0  0  0  0  0  0
    6.4258   -1.5212   -1.1395 H   0  0  0  0  0  0  0  0  0  0  0  0
    6.2154   -0.0393   -2.0785 H   0  0  0  0  0  0  0  0  0  0  0  0
    7.4438    1.0112   -0.3936 H   0  0  0  0  0  0  0  0  0  0  0  0
    9.8192    0.8002    3.8739 H   0  0  0  0  0  0  0  0  0  0  0  0
    8.5187    2.1130    3.7787 H   0  0  0  0  0  0  0  0  0  0  0  0
    8.6522    1.1321    5.2640 H   0  0  0  0  0  0  0  0  0  0  0  0
    5.9806   -0.5321    4.5709 H   0  0  0  0  0  0  0  0  0  0  0  0
    6.6098    1.0906    5.1730 H   0  0  0  0  0  0  0  0  0  0  0  0
    5.8312    0.9930    3.5756 H   0  0  0  0  0  0  0  0  0  0  0  0
    7.3529   -1.9113    4.2162 H   0  0  0  0  0  0  0  0  0  0  0  0
    8.9231   -1.2325    4.7225 H   0  0  0  0  0  0  0  0  0  0  0  0
    8.7127   -1.7556    3.0068 H   0  0  0  0  0  0  0  0  0  0  0  0
    2.2490   -3.0489   -1.1976 H   0  0  0  0  0  0  0  0  0  0  0  0
    0.1578   -0.9727    1.2116 H   0  0  0  0  0  0  0  0  0  0  0  0
   -2.7940   -3.4406   -0.9088 H   0  0  0  0  0  0  0  0  0  0  0  0
    0.5910   -4.4342   -2.2587 H   0  0  0  0  0  0  0  0  0  0  0  0
   -1.2320   -4.6975   -2.5156 H   0  0  0  0  0  0  0  0  0  0  0  0
    0.5664   -2.3893   -3.5261 H   0  0  0  0  0  0  0  0  0  0  0  0
   -1.2085   -2.5009   -3.8159 H   0  0  0  0  0  0  0  0  0  0  0  0
   -0.7546   -5.1874   -6.0988 H   0  0  0  0  0  0  0  0  0  0  0  0
   -1.0920   -5.4893   -4.3684 H   0  0  0  0  0  0  0  0  0  0  0  0
   -2.0510   -4.2254   -5.2309 H   0  0  0  0  0  0  0  0  0  0  0  0
    3.3739    0.7617   -3.7421 H   0  0  0  0  0  0  0  0  0  0  0  0
    3.9268    1.9559   -2.5696 H   0  0  0  0  0  0  0  0  0  0  0  0
    2.5333    3.6773   -3.6413 H   0  0  0  0  0  0  0  0  0  0  0  0
    3.9437    3.1476   -4.5342 H   0  0  0  0  0  0  0  0  0  0  0  0
    0.3371    2.3111   -6.2801 H   0  0  0  0  0  0  0  0  0  0  0  0
    0.6031    1.3845   -4.7993 H   0  0  0  0  0  0  0  0  0  0  0  0
    0.1890    3.2022   -4.7781 H   0  0  0  0  0  0  0  0  0  0  0  0
    0.7399    3.2563   -2.5305 H   0  0  0  0  0  0  0  0  0  0  0  0
  1  2  1  0
  2  3  1  0
  3  4  1  0
  4  5  1  0
  5  6  2  0
  6  7  1  0
  7  8  2  0
  8  9  1  0
  9 10  2  0
 10 11  1  0
 11 12  2  0
 12 13  1  0
 13 14  1  0
 14 15  1  0
 15 16  2  0
 16 17  1  0
 17 18  1  0
 18 19  1  0
 19 20  1  0
 14 21  2  0
 21 22  1  0
 22 23  2  0
 23 24  1  0
 24 25  1  0
 25 26  1  0
 26 27  2  0
 26 28  1  0
 28 29  1  0
 29 30  1  0
 30 31  2  0
 30 32  1  0
 32 33  1  0
 33 34  1  0
 33 35  1  0
 33 36  1  0
 24 37  2  0
 37 38  1  0
 38 39  1  0
 39 40  1  0
 40 41  2  0
 41 42  1  0
 42 43  1  0
 43 44  1  0
 44 45  1  0
 45 46  1  0
 23 47  1  0
 47 48  1  0
 48 49  1  0
 49 50  1  0
 50 51  1  0
 47 52  2  0
  9  5  1  0
 16 12  1  0
 52 21  1  0
 40  7  1  0
 42 38  2  0
  1 53  1  0
  1 54  1  0
  1 55  1  0
  3 56  1  0
  3 57  1  0
  4 58  1  0
  4 59  1  0
  6 60  1  0
 10 61  1  0
 11 62  1  0
 13 63  1  0
 15 64  1  0
 17 65  1  0
 17 66  1  0
 18 67  1  0
 18 68  1  0
 20 69  1  0
 20 70  1  0
 20 71  1  0
 28 72  1  0
 28 73  1  0
 29 74  1  0
 34 75  1  0
 34 76  1  0
 34 77  1  0
 35 78  1  0
 35 79  1  0
 35 80  1  0
 36 81  1  0
 36 82  1  0
 36 83  1  0
 37 84  1  0
 39 85  1  0
 41 86  1  0
 43 87  1  0
 43 88  1  0
 44 89  1  0
 44 90  1  0
 46 91  1  0
 46 92  1  0
 46 93  1  0
 48 94  1  0
 48 95  1  0
 49 96  1  0
 49 97  1  0
 51 98  1  0
 51 99  1  0
 51100  1  0
 52101  1  0
M  END
