
     RDKit          3D

 96106  0  0  0  0  0  0  0  0999 V2000
    3.5202   -2.6038   -3.9321 N   0  0  0  0  0  0  0  0  0  0  0  0
    2.5523   -1.9130   -3.2882 C   0  0  0  0  0  0  0  0  0  0  0  0
    1.5983   -1.2526   -2.6778 C   0  0  0  0  0  0  0  0  0  0  0  0
    0.3713   -1.0439   -3.3370 C   0  0  0  0  0  0  0  0  0  0  0  0
   -0.7148   -0.4294   -2.7483 C   0  0  0  0  0  0  0  0  0  0  0  0
   -1.7581   -0.0088   -3.5038 C   0  0  0  0  0  0  0  0  0  0  0  0
   -2.7222    0.3745   -4.2268 N   0  0  0  0  0  0  0  0  0  0  0  0
   -0.5366   -0.0251   -1.4089 C   0  0  0  0  0  0  0  0  0  0  0  0
   -1.7806    0.3626   -0.7571 C   0  0  0  0  0  0  0  0  0  0  0  0
   -2.6463   -0.7194   -0.4853 C   0  0  0  0  0  0  0  0  0  0  0  0
   -3.8447   -0.5104    0.0821 C   0  0  0  0  0  0  0  0  0  0  0  0
   -4.6479   -1.6810    0.3231 N   0  0  0  0  0  0  0  0  0  0  0  0
   -4.9866   -2.5758   -0.6301 C   0  0  0  0  0  0  0  0  0  0  0  0
   -4.6995   -2.6540   -2.0021 C   0  0  0  0  0  0  0  0  0  0  0  0
   -5.1751   -3.7112   -2.7255 C   0  0  0  0  0  0  0  0  0  0  0  0
   -5.9273   -4.7085   -2.1742 C   0  0  0  0  0  0  0  0  0  0  0  0
   -6.2181   -4.6377   -0.8183 C   0  0  0  0  0  0  0  0  0  0  0  0
   -5.7531   -3.5887   -0.0692 C   0  0  0  0  0  0  0  0  0  0  0  0
   -5.8735   -3.2747    1.2896 C   0  0  0  0  0  0  0  0  0  0  0  0
   -6.5082   -3.9379    2.2935 C   0  0  0  0  0  0  0  0  0  0  0  0
   -6.4653   -3.4240    3.5948 C   0  0  0  0  0  0  0  0  0  0  0  0
   -5.7797   -2.2590    3.8068 C   0  0  0  0  0  0  0  0  0  0  0  0
   -5.1500   -1.6088    2.7679 C   0  0  0  0  0  0  0  0  0  0  0  0
   -5.1674   -2.0838    1.4733 C   0  0  0  0  0  0  0  0  0  0  0  0
   -4.2498    0.7576    0.4047 C   0  0  0  0  0  0  0  0  0  0  0  0
   -3.4306    1.8606    0.1517 C   0  0  0  0  0  0  0  0  0  0  0  0
   -3.9642    3.1447    0.4613 N   0  0  0  0  0  0  0  0  0  0  0  0
   -4.0761    3.6693    1.6853 C   0  0  0  0  0  0  0  0  0  0  0  0
   -3.7135    3.2325    2.9509 C   0  0  0  0  0  0  0  0  0  0  0  0
   -3.9734    4.0176    4.0506 C   0  0  0  0  0  0  0  0  0  0  0  0
   -4.5912    5.2235    3.8588 C   0  0  0  0  0  0  0  0  0  0  0  0
   -4.9519    5.6693    2.6240 C   0  0  0  0  0  0  0  0  0  0  0  0
   -4.6925    4.8913    1.5331 C   0  0  0  0  0  0  0  0  0  0  0  0
   -4.9400    5.0836    0.1759 C   0  0  0  0  0  0  0  0  0  0  0  0
   -5.5343    6.1155   -0.5368 C   0  0  0  0  0  0  0  0  0  0  0  0
   -5.6461    6.0013   -1.9142 C   0  0  0  0  0  0  0  0  0  0  0  0
   -5.1703    4.8767   -2.5743 C   0  0  0  0  0  0  0  0  0  0  0  0
   -4.5821    3.8561   -1.8583 C   0  0  0  0  0  0  0  0  0  0  0  0
   -4.4813    3.9854   -0.4847 C   0  0  0  0  0  0  0  0  0  0  0  0
   -2.2021    1.6180   -0.4262 C   0  0  0  0  0  0  0  0  0  0  0  0
    0.6516   -0.2120   -0.7574 C   0  0  0  0  0  0  0  0  0  0  0  0
    1.7111   -0.8000   -1.3461 C   0  0  0  0  0  0  0  0  0  0  0  0
    3.0792   -0.8782   -0.7885 C   0  0  0  0  0  0  0  0  0  0  0  0
    3.8033   -2.0136   -0.5969 C   0  0  0  0  0  0  0  0  0  0  0  0
    5.1580   -1.9652   -0.2352 C   0  0  0  0  0  0  0  0  0  0  0  0
    5.7940   -0.7282   -0.0625 C   0  0  0  0  0  0  0  0  0  0  0  0
    7.1959   -0.7576    0.3460 N   0  0  0  0  0  0  0  0  0  0  0  0
    7.4183   -1.5073    1.5289 C   0  0  0  0  0  0  0  0  0  0  0  0
    8.3215   -2.4896    1.6395 C   0  0  0  0  0  0  0  0  0  0  0  0
    8.6232   -3.1354    2.8615 C   0  0  0  0  0  0  0  0  0  0  0  0
    7.9382   -2.7175    3.9599 C   0  0  0  0  0  0  0  0  0  0  0  0
    7.0060   -1.7169    3.8566 C   0  0  0  0  0  0  0  0  0  0  0  0
    6.7064   -1.0819    2.6891 C   0  0  0  0  0  0  0  0  0  0  0  0
    8.2261   -0.1734   -0.4288 C   0  0  0  0  0  0  0  0  0  0  0  0
    9.4723   -0.7202   -0.6511 C   0  0  0  0  0  0  0  0  0  0  0  0
   10.4184   -0.1693   -1.5174 C   0  0  0  0  0  0  0  0  0  0  0  0
   10.1441    0.9665   -2.1985 C   0  0  0  0  0  0  0  0  0  0  0  0
    8.9252    1.5496   -2.0097 C   0  0  0  0  0  0  0  0  0  0  0  0
    7.9894    0.9898   -1.1466 C   0  0  0  0  0  0  0  0  0  0  0  0
    5.0589    0.3856   -0.2469 C   0  0  0  0  0  0  0  0  0  0  0  0
    3.7147    0.3490   -0.6061 C   0  0  0  0  0  0  0  0  0  0  0  0
    0.2607   -1.3881   -4.3657 H   0  0  0  0  0  0  0  0  0  0  0  0
   -2.2900   -1.7276   -0.7680 H   0  0  0  0  0  0  0  0  0  0  0  0
   -4.1060   -1.8756   -2.4403 H   0  0  0  0  0  0  0  0  0  0  0  0
   -4.9399   -3.7549   -3.8051 H   0  0  0  0  0  0  0  0  0  0  0  0
   -6.2953   -5.5588   -2.7756 H   0  0  0  0  0  0  0  0  0  0  0  0
   -6.8249   -5.4361   -0.3563 H   0  0  0  0  0  0  0  0  0  0  0  0
   -7.0494   -4.8662    2.1910 H   0  0  0  0  0  0  0  0  0  0  0  0
   -6.9355   -3.8923    4.4295 H   0  0  0  0  0  0  0  0  0  0  0  0
   -5.7117   -1.8275    4.7907 H   0  0  0  0  0  0  0  0  0  0  0  0
   -4.6048   -0.6933    2.9185 H   0  0  0  0  0  0  0  0  0  0  0  0
   -5.2147    0.9410    0.8631 H   0  0  0  0  0  0  0  0  0  0  0  0
   -3.2242    2.2945    3.0794 H   0  0  0  0  0  0  0  0  0  0  0  0
   -3.6966    3.6738    5.0526 H   0  0  0  0  0  0  0  0  0  0  0  0
   -4.8176    5.8738    4.7005 H   0  0  0  0  0  0  0  0  0  0  0  0
   -5.4399    6.6261    2.4354 H   0  0  0  0  0  0  0  0  0  0  0  0
   -5.8853    6.9666    0.0191 H   0  0  0  0  0  0  0  0  0  0  0  0
   -6.0877    6.7765   -2.5141 H   0  0  0  0  0  0  0  0  0  0  0  0
   -5.2277    4.7763   -3.6485 H   0  0  0  0  0  0  0  0  0  0  0  0
   -4.1873    2.9722   -2.3525 H   0  0  0  0  0  0  0  0  0  0  0  0
   -1.5566    2.4729   -0.6248 H   0  0  0  0  0  0  0  0  0  0  0  0
    0.7663    0.1253    0.2710 H   0  0  0  0  0  0  0  0  0  0  0  0
    3.3175   -2.9539   -0.7202 H   0  0  0  0  0  0  0  0  0  0  0  0
    5.7482   -2.8435   -0.0923 H   0  0  0  0  0  0  0  0  0  0  0  0
    8.8381   -2.9289    0.7899 H   0  0  0  0  0  0  0  0  0  0  0  0
    9.3422   -3.9137    2.9150 H   0  0  0  0  0  0  0  0  0  0  0  0
    8.1291   -3.1873    4.8969 H   0  0  0  0  0  0  0  0  0  0  0  0
    6.4855   -1.4048    4.7609 H   0  0  0  0  0  0  0  0  0  0  0  0
    5.9926   -0.2883    2.5450 H   0  0  0  0  0  0  0  0  0  0  0  0
    9.7771   -1.5974   -0.1393 H   0  0  0  0  0  0  0  0  0  0  0  0
   11.3709   -0.6482   -1.6494 H   0  0  0  0  0  0  0  0  0  0  0  0
   10.8690    1.4295   -2.8858 H   0  0  0  0  0  0  0  0  0  0  0  0
    8.6917    2.4645   -2.5630 H   0  0  0  0  0  0  0  0  0  0  0  0
    7.0677    1.5290   -1.0801 H   0  0  0  0  0  0  0  0  0  0  0  0
    5.4773    1.3674   -0.0378 H   0  0  0  0  0  0  0  0  0  0  0  0
    3.1182    1.2342   -0.7450 H   0  0  0  0  0  0  0  0  0  0  0  0
  1  2  3  0
  2  3  1  0
  3  4  2  0
  4  5  1  0
  5  6  1  0
  6  7  3  0
  5  8  2  0
  8  9  1  0
  9 10  2  0
 10 11  1  0
 11 12  1  0
 12 13  1  0
 13 14  2  0
 14 15  1  0
 15 16  2  0
 16 17  1  0
 17 18  2  0
 18 19  1  0
 19 20  2  0
 20 21  1  0
 21 22  2  0
 22 23  1  0
 23 24  2  0
 11 25  2  0
 25 26  1  0
 26 27  1  0
 27 28  1  0
 28 29  2  0
 29 30  1  0
 30 31  2  0
 31 32  1  0
 32 33  2  0
 33 34  1  0
 34 35  2  0
 35 36  1  0
 36 37  2  0
 37 38  1  0
 38 39  2  0
 26 40  2  0
  8 41  1  0
 41 42  2  0
 42 43  1  0
 43 44  2  0
 44 45  1  0
 45 46  2  0
 46 47  1  0
 47 48  1  0
 48 49  2  0
 49 50  1  0
 50 51  2  0
 51 52  1  0
 52 53  2  0
 47 54  1  0
 54 55  2  0
 55 56  1  0
 56 57  2  0
 57 58  1  0
 58 59  2  0
 46 60  1  0
 60 61  2  0
 42  3  1  0
 61 43  1  0
 40  9  1  0
 53 48  1  0
 59 54  1  0
 24 12  1  0
 39 27  1  0
 18 13  1  0
 24 19  1  0
 33 28  1  0
 39 34  1  0
  4 62  1  0
 10 63  1  0
 14 64  1  0
 15 65  1  0
 16 66  1  0
 17 67  1  0
 20 68  1  0
 21 69  1  0
 22 70  1  0
 23 71  1  0
 25 72  1  0
 29 73  1  0
 30 74  1  0
 31 75  1  0
 32 76  1  0
 35 77  1  0
 36 78  1  0
 37 79  1  0
 38 80  1  0
 40 81  1  0
 41 82  1  0
 44 83  1  0
 45 84  1  0
 49 85  1  0
 50 86  1  0
 51 87  1  0
 52 88  1  0
 53 89  1  0
 55 90  1  0
 56 91  1  0
 57 92  1  0
 58 93  1  0
 59 94  1  0
 60 95  1  0
 61 96  1  0
M  END
