
     RDKit          3D

 45 48  0  0  0  0  0  0  0  0999 V2000
    7.4630   -0.2248   -0.3729 C   0  0  0  0  0  0  0  0  0  0  0  0
    6.4369    0.7109    0.0342 N   0  0  0  0  0  0  0  0  0  0  0  0
    6.8404    1.9755    0.6077 C   0  0  0  0  0  0  0  0  0  0  0  0
    5.0664    0.3348   -0.1528 C   0  0  0  0  0  0  0  0  0  0  0  0
    4.3981    0.6334   -1.3202 C   0  0  0  0  0  0  0  0  0  0  0  0
    3.0577    0.2592   -1.4889 C   0  0  0  0  0  0  0  0  0  0  0  0
    2.3785   -0.4095   -0.5049 C   0  0  0  0  0  0  0  0  0  0  0  0
    1.0199   -0.7811   -0.6924 C   0  0  0  0  0  0  0  0  0  0  0  0
   -0.1387   -1.0873   -0.8336 C   0  0  0  0  0  0  0  0  0  0  0  0
   -1.5143   -1.4744   -0.9920 C   0  0  0  0  0  0  0  0  0  0  0  0
   -2.5192   -0.7356   -0.4912 C   0  0  0  0  0  0  0  0  0  0  0  0
   -2.1578    0.4878    0.2273 C   0  0  0  0  0  0  0  0  0  0  0  0
   -3.2381    1.2989    0.7949 C   0  0  0  0  0  0  0  0  0  0  0  0
   -4.6277    0.8807    0.6023 C   0  0  0  0  0  0  0  0  0  0  0  0
   -5.6689    1.6661    1.1284 C   0  0  0  0  0  0  0  0  0  0  0  0
   -6.9767    1.3003    0.9689 C   0  0  0  0  0  0  0  0  0  0  0  0
   -7.3171    0.1466    0.2853 C   0  0  0  0  0  0  0  0  0  0  0  0
   -6.3101   -0.6307   -0.2343 C   0  0  0  0  0  0  0  0  0  0  0  0
   -4.9670   -0.2532   -0.0695 C   0  0  0  0  0  0  0  0  0  0  0  0
   -3.9159   -1.0962   -0.6369 C   0  0  0  0  0  0  0  0  0  0  0  0
   -4.2565   -2.1416   -1.2536 O   0  0  0  0  0  3  0  0  0  0  0  0
   -3.2788   -3.0568   -1.8604 B   0  0  0  0  0  4  0  0  0  0  0  0
   -3.4386   -4.3848   -1.2641 F   0  0  0  0  0  0  0  0  0  0  0  0
   -3.6173   -3.1923   -3.2757 F   0  0  0  0  0  0  0  0  0  0  0  0
   -1.8762   -2.6267   -1.6674 O   0  0  0  0  0  0  0  0  0  0  0  0
    3.0483   -0.7047    0.6558 C   0  0  0  0  0  0  0  0  0  0  0  0
    4.3824   -0.3395    0.8401 C   0  0  0  0  0  0  0  0  0  0  0  0
    8.3049    0.3300   -0.8688 H   0  0  0  0  0  0  0  0  0  0  0  0
    7.8402   -0.7368    0.5370 H   0  0  0  0  0  0  0  0  0  0  0  0
    7.0979   -0.9408   -1.1375 H   0  0  0  0  0  0  0  0  0  0  0  0
    7.2287    2.6864   -0.1471 H   0  0  0  0  0  0  0  0  0  0  0  0
    7.5460    1.8317    1.4565 H   0  0  0  0  0  0  0  0  0  0  0  0
    5.9344    2.4631    1.0547 H   0  0  0  0  0  0  0  0  0  0  0  0
    4.9383    1.1609   -2.0930 H   0  0  0  0  0  0  0  0  0  0  0  0
    2.6111    0.5322   -2.4330 H   0  0  0  0  0  0  0  0  0  0  0  0
   -1.5930    1.1228   -0.5318 H   0  0  0  0  0  0  0  0  0  0  0  0
   -1.3584    0.2808    0.9994 H   0  0  0  0  0  0  0  0  0  0  0  0
   -3.0879    1.3410    1.9194 H   0  0  0  0  0  0  0  0  0  0  0  0
   -3.1241    2.3999    0.5026 H   0  0  0  0  0  0  0  0  0  0  0  0
   -5.3871    2.5746    1.6662 H   0  0  0  0  0  0  0  0  0  0  0  0
   -7.7766    1.9103    1.3772 H   0  0  0  0  0  0  0  0  0  0  0  0
   -8.3637   -0.1465    0.1575 H   0  0  0  0  0  0  0  0  0  0  0  0
   -6.5248   -1.5428   -0.7774 H   0  0  0  0  0  0  0  0  0  0  0  0
    2.5800   -1.2275    1.4720 H   0  0  0  0  0  0  0  0  0  0  0  0
    4.8615   -0.5945    1.7682 H   0  0  0  0  0  0  0  0  0  0  0  0
  1  2  1  0
  2  3  1  0
  2  4  1  0
  4  5  2  0
  5  6  1  0
  6  7  2  0
  7  8  1  0
  8  9  3  0
  9 10  1  0
 10 11  2  0
 11 12  1  0
 12 13  1  0
 13 14  1  0
 14 15  2  0
 15 16  1  0
 16 17  2  0
 17 18  1  0
 18 19  2  0
 19 20  1  0
 20 21  2  0
 21 22  1  0
 22 23  1  0
 22 24  1  0
 22 25  1  0
  7 26  1  0
 26 27  2  0
 27  4  1  0
 25 10  1  0
 20 11  1  0
 19 14  1  0
  1 28  1  0
  1 29  1  0
  1 30  1  0
  3 31  1  0
  3 32  1  0
  3 33  1  0
  5 34  1  0
  6 35  1  0
 12 36  1  0
 12 37  1  0
 13 38  1  0
 13 39  1  0
 15 40  1  0
 16 41  1  0
 17 42  1  0
 18 43  1  0
 26 44  1  0
 27 45  1  0
M  CHG  2  21   1  22  -1
M  END
