
     RDKit          3D

 71 78  0  0  0  0  0  0  0  0999 V2000
   -0.3071   -2.1758   -0.7331 F   0  0  0  0  0  0  0  0  0  0  0  0
   -0.1406   -1.0116    0.1041 B   0  0  0  0  0  4  0  0  0  0  0  0
   -0.2743   -1.5487    1.4960 F   0  0  0  0  0  0  0  0  0  0  0  0
   -1.2772   -0.0385   -0.0445 N   0  0  0  0  0  0  0  0  0  0  0  0
   -1.1146    1.2758   -0.2099 C   0  0  0  0  0  0  0  0  0  0  0  0
   -2.3763    1.8779   -0.3146 C   0  0  0  0  0  0  0  0  0  0  0  0
   -3.3021    0.8959   -0.2091 C   0  0  0  0  0  0  0  0  0  0  0  0
   -4.7424    1.0944   -0.2684 C   0  0  0  0  0  0  0  0  0  0  0  0
   -5.4824    0.7676    0.8429 C   0  0  0  0  0  0  0  0  0  0  0  0
   -6.8471    0.9409    0.8245 C   0  0  0  0  0  0  0  0  0  0  0  0
   -7.4659    1.4446   -0.3167 C   0  0  0  0  0  0  0  0  0  0  0  0
   -6.7184    1.7738   -1.4367 C   0  0  0  0  0  0  0  0  0  0  0  0
   -5.3457    1.5955   -1.4075 C   0  0  0  0  0  0  0  0  0  0  0  0
   -2.6337   -0.2699   -0.0447 C   0  0  0  0  0  0  0  0  0  0  0  0
   -3.1967   -1.6004    0.0991 C   0  0  0  0  0  0  0  0  0  0  0  0
   -3.7099   -2.2764   -0.9861 C   0  0  0  0  0  0  0  0  0  0  0  0
   -4.2395   -3.5273   -0.7918 C   0  0  0  0  0  0  0  0  0  0  0  0
   -4.2630   -4.1066    0.4621 C   0  0  0  0  0  0  0  0  0  0  0  0
   -3.7443   -3.4168    1.5453 C   0  0  0  0  0  0  0  0  0  0  0  0
   -3.2176   -2.1704    1.3467 C   0  0  0  0  0  0  0  0  0  0  0  0
    0.2335    1.8276   -0.2508 C   0  0  0  0  0  0  0  0  0  0  0  0
    0.4050    3.2694   -0.4047 C   0  0  0  0  0  0  0  0  0  0  0  0
   -0.2582    3.9550   -1.3956 C   0  0  0  0  0  0  0  0  0  0  0  0
   -0.0760    5.3193   -1.4757 C   0  0  0  0  0  0  0  0  0  0  0  0
    0.7430    6.0236   -0.6045 C   0  0  0  0  0  0  0  0  0  0  0  0
    1.3748    5.2814    0.3595 C   0  0  0  0  0  0  0  0  0  0  0  0
    1.2286    3.9175    0.4854 C   0  0  0  0  0  0  0  0  0  0  0  0
    1.3009    1.0585   -0.1289 C   0  0  0  0  0  0  0  0  0  0  0  0
    2.7338    1.3693   -0.1357 C   0  0  0  0  0  0  0  0  0  0  0  0
    3.3915    0.2329    0.0162 C   0  0  0  0  0  0  0  0  0  0  0  0
    4.8478    0.1324    0.0612 C   0  0  0  0  0  0  0  0  0  0  0  0
    5.5776   -1.0051   -0.0829 C   0  0  0  0  0  0  0  0  0  0  0  0
    6.9468   -1.0440    0.0418 C   0  0  0  0  0  0  0  0  0  0  0  0
    7.6471    0.1148    0.3251 C   0  0  0  0  0  0  0  0  0  0  0  0
    6.9066    1.2827    0.4718 C   0  0  0  0  0  0  0  0  0  0  0  0
    5.5405    1.3103    0.3468 C   0  0  0  0  0  0  0  0  0  0  0  0
    2.4420   -0.8551    0.1365 C   0  0  0  0  0  0  0  0  0  0  0  0
    2.6687   -2.2747    0.2821 C   0  0  0  0  0  0  0  0  0  0  0  0
    3.3492   -2.8109    1.3819 C   0  0  0  0  0  0  0  0  0  0  0  0
    3.6404   -4.1519    1.4782 C   0  0  0  0  0  0  0  0  0  0  0  0
    3.2645   -5.0343    0.4741 C   0  0  0  0  0  0  0  0  0  0  0  0
    2.6030   -4.5352   -0.6051 C   0  0  0  0  0  0  0  0  0  0  0  0
    2.3105   -3.1646   -0.6960 C   0  0  0  0  0  0  0  0  0  0  0  0
    1.2111   -0.3318    0.0402 N   0  0  0  0  0  4  0  0  0  0  0  0
   -2.4997    2.9568   -0.4500 H   0  0  0  0  0  0  0  0  0  0  0  0
   -5.0373    0.3681    1.7628 H   0  0  0  0  0  0  0  0  0  0  0  0
   -7.4676    0.6921    1.6893 H   0  0  0  0  0  0  0  0  0  0  0  0
   -8.5392    1.5933   -0.3631 H   0  0  0  0  0  0  0  0  0  0  0  0
   -7.2399    2.1615   -2.3013 H   0  0  0  0  0  0  0  0  0  0  0  0
   -4.7635    1.8603   -2.3016 H   0  0  0  0  0  0  0  0  0  0  0  0
   -3.6854   -1.8047   -1.9760 H   0  0  0  0  0  0  0  0  0  0  0  0
   -4.6516   -4.0825   -1.6319 H   0  0  0  0  0  0  0  0  0  0  0  0
   -4.6984   -5.1035    0.5537 H   0  0  0  0  0  0  0  0  0  0  0  0
   -3.7853   -3.9132    2.5083 H   0  0  0  0  0  0  0  0  0  0  0  0
   -2.8294   -1.6664    2.2330 H   0  0  0  0  0  0  0  0  0  0  0  0
   -0.9138    3.4331   -2.1171 H   0  0  0  0  0  0  0  0  0  0  0  0
   -0.6166    5.8369   -2.2764 H   0  0  0  0  0  0  0  0  0  0  0  0
    0.8539    7.1053   -0.7118 H   0  0  0  0  0  0  0  0  0  0  0  0
    2.0272    5.7982    1.0622 H   0  0  0  0  0  0  0  0  0  0  0  0
    1.7608    3.3815    1.2914 H   0  0  0  0  0  0  0  0  0  0  0  0
    3.1929    2.3322   -0.2526 H   0  0  0  0  0  0  0  0  0  0  0  0
    5.0849   -1.9232   -0.3513 H   0  0  0  0  0  0  0  0  0  0  0  0
    7.4676   -2.0060   -0.0866 H   0  0  0  0  0  0  0  0  0  0  0  0
    8.7245    0.0834    0.4225 H   0  0  0  0  0  0  0  0  0  0  0  0
    7.4973    2.1825    0.6954 H   0  0  0  0  0  0  0  0  0  0  0  0
    5.0234    2.2659    0.4803 H   0  0  0  0  0  0  0  0  0  0  0  0
    3.6706   -2.1816    2.1974 H   0  0  0  0  0  0  0  0  0  0  0  0
    4.1677   -4.5930    2.3212 H   0  0  0  0  0  0  0  0  0  0  0  0
    3.4963   -6.0794    0.5603 H   0  0  0  0  0  0  0  0  0  0  0  0
    2.3000   -5.2076   -1.4046 H   0  0  0  0  0  0  0  0  0  0  0  0
    1.8269   -2.9006   -1.6321 H   0  0  0  0  0  0  0  0  0  0  0  0
  1  2  1  0
  2  3  1  0
  2  4  1  0
  4  5  1  0
  5  6  2  0
  6  7  1  0
  7  8  1  0
  8  9  2  0
  9 10  1  0
 10 11  2  0
 11 12  1  0
 12 13  2  0
  7 14  2  0
 14 15  1  0
 15 16  2  0
 16 17  1  0
 17 18  2  0
 18 19  1  0
 19 20  2  0
  5 21  1  0
 21 22  1  0
 22 23  2  0
 23 24  1  0
 24 25  2  0
 25 26  1  0
 26 27  2  0
 21 28  2  0
 28 29  1  0
 29 30  2  0
 30 31  1  0
 31 32  2  0
 32 33  1  0
 33 34  2  0
 34 35  1  0
 35 36  2  0
 30 37  1  0
 37 38  1  0
 38 39  2  0
 39 40  1  0
 40 41  2  0
 41 42  1  0
 42 43  2  0
 37 44  2  0
 44  2  1  0
 14  4  1  0
 20 15  1  0
 27 22  1  0
 44 28  1  0
 13  8  1  0
 36 31  1  0
 43 38  1  0
  6 45  1  0
  9 46  1  0
 10 47  1  0
 11 48  1  0
 12 49  1  0
 13 50  1  0
 16 51  1  0
 17 52  1  0
 18 53  1  0
 19 54  1  0
 20 55  1  0
 23 56  1  0
 24 57  1  0
 25 58  1  0
 26 59  1  0
 27 60  1  0
 29 61  1  0
 32 62  1  0
 33 63  1  0
 34 64  1  0
 35 65  1  0
 36 66  1  0
 39 67  1  0
 40 68  1  0
 41 69  1  0
 42 70  1  0
 43 71  1  0
M  CHG  2   2  -1  44   1
M  END
