
     RDKit          3D

 37 39  0  0  0  0  0  0  0  0999 V2000
   -5.3747    4.8104   -0.7125 C   0  0  0  0  0  0  0  0  0  0  0  0
   -5.0581    3.7494   -1.5767 O   0  0  0  0  0  0  0  0  0  0  0  0
   -3.9196    3.0507   -1.6505 C   0  0  0  0  0  0  0  0  0  0  0  0
   -3.7215    2.1220   -2.6264 C   0  0  0  0  0  0  0  0  0  0  0  0
   -2.5681    1.4103   -2.6658 C   0  0  0  0  0  0  0  0  0  0  0  0
   -1.5208    1.5672   -1.7320 C   0  0  0  0  0  0  0  0  0  0  0  0
   -0.3187    0.7408   -1.8970 C   0  0  0  0  0  0  0  0  0  0  0  0
    0.2932    0.6047   -3.1105 C   0  0  0  0  0  0  0  0  0  0  0  0
    1.6270   -0.3667   -2.7823 S   0  0  0  0  0  0  0  0  0  0  0  0
    1.3815   -0.5883   -1.1064 C   0  0  0  0  0  0  0  0  0  0  0  0
    2.1668   -1.4178   -0.2155 C   0  0  0  0  0  0  0  0  0  0  0  0
    3.4434   -1.9211   -0.7564 C   0  0  0  0  0  0  0  0  0  0  0  0
    4.4163   -2.2941   -1.1849 N   0  0  0  0  0  0  0  0  0  0  0  0
    1.8711   -1.7182    1.0067 C   0  0  0  0  0  0  0  0  0  0  0  0
    2.6672   -2.5975    1.9087 C   0  0  0  0  0  0  0  0  0  0  0  0
    3.2403   -3.7329    1.3999 C   0  0  0  0  0  0  0  0  0  0  0  0
    3.9358   -4.6239    2.2705 C   0  0  0  0  0  0  0  0  0  0  0  0
    3.9846   -4.2803    3.5801 C   0  0  0  0  0  0  0  0  0  0  0  0
    4.8009   -5.4510    4.6662 Cl  0  0  0  0  0  0  0  0  0  0  0  0
    3.4293   -3.1606    4.1229 C   0  0  0  0  0  0  0  0  0  0  0  0
    2.7473   -2.2986    3.2207 C   0  0  0  0  0  0  0  0  0  0  0  0
    0.2840    0.1009   -0.8691 N   0  0  0  0  0  0  0  0  0  0  0  0
   -1.7331    2.4932   -0.7748 C   0  0  0  0  0  0  0  0  0  0  0  0
   -2.9087    3.2619   -0.6912 C   0  0  0  0  0  0  0  0  0  0  0  0
   -5.9122    4.4485    0.2155 H   0  0  0  0  0  0  0  0  0  0  0  0
   -4.4615    5.3404   -0.4359 H   0  0  0  0  0  0  0  0  0  0  0  0
   -6.1193    5.5372   -1.1543 H   0  0  0  0  0  0  0  0  0  0  0  0
   -4.5292    1.9765   -3.3690 H   0  0  0  0  0  0  0  0  0  0  0  0
   -2.4167    0.6940   -3.4409 H   0  0  0  0  0  0  0  0  0  0  0  0
   -0.0674    1.0624   -4.0647 H   0  0  0  0  0  0  0  0  0  0  0  0
    0.9566   -1.2507    1.4202 H   0  0  0  0  0  0  0  0  0  0  0  0
    3.1985   -4.0499    0.3821 H   0  0  0  0  0  0  0  0  0  0  0  0
    4.3660   -5.5010    1.8116 H   0  0  0  0  0  0  0  0  0  0  0  0
    3.5061   -2.9472    5.1547 H   0  0  0  0  0  0  0  0  0  0  0  0
    2.2964   -1.4289    3.6375 H   0  0  0  0  0  0  0  0  0  0  0  0
   -0.9567    2.6795   -0.0122 H   0  0  0  0  0  0  0  0  0  0  0  0
   -3.0260    3.9790    0.0775 H   0  0  0  0  0  0  0  0  0  0  0  0
  1  2  1  0
  2  3  1  0
  3  4  2  0
  4  5  1  0
  5  6  2  0
  6  7  1  0
  7  8  2  0
  8  9  1  0
  9 10  1  0
 10 11  1  0
 11 12  1  0
 12 13  3  0
 11 14  2  0
 14 15  1  0
 15 16  2  0
 16 17  1  0
 17 18  2  0
 18 19  1  0
 18 20  1  0
 20 21  2  0
 10 22  2  0
  6 23  1  0
 23 24  2  0
 24  3  1  0
 22  7  1  0
 21 15  1  0
  1 25  1  0
  1 26  1  0
  1 27  1  0
  4 28  1  0
  5 29  1  0
  8 30  1  0
 14 31  1  0
 16 32  1  0
 17 33  1  0
 20 34  1  0
 21 35  1  0
 23 36  1  0
 24 37  1  0
M  END
