
     RDKit          3D

 18 18  0  0  0  0  0  0  0  0999 V2000
    2.4350   -0.8291   -0.1280 C   0  0  0  0  0  0  0  0  0  0  0  0
    1.1771   -0.0919   -0.0258 N   0  0  0  0  0  0  0  0  0  0  0  0
    1.2361    1.2429    0.1198 C   0  0  0  0  0  0  0  0  0  0  0  0
    0.0150    1.9037    0.2130 C   0  0  0  0  0  0  0  0  0  0  0  0
   -1.1756    1.1980    0.1557 C   0  0  0  0  0  0  0  0  0  0  0  0
   -2.2800    1.8321    0.2440 O   0  0  0  0  0  0  0  0  0  0  0  0
   -1.1811   -0.1504    0.0077 N   0  0  0  0  0  0  0  0  0  0  0  0
   -2.4266   -0.8780   -0.0511 C   0  0  0  0  0  0  0  0  0  0  0  0
    0.0134   -0.7664   -0.0802 C   0  0  0  0  0  0  0  0  0  0  0  0
    0.0462   -2.0016   -0.2164 O   0  0  0  0  0  0  0  0  0  0  0  0
    2.9692   -0.4631   -1.0377 H   0  0  0  0  0  0  0  0  0  0  0  0
    3.0687   -0.6759    0.7850 H   0  0  0  0  0  0  0  0  0  0  0  0
    2.2374   -1.9175   -0.2128 H   0  0  0  0  0  0  0  0  0  0  0  0
    2.1399    1.8136    0.1672 H   0  0  0  0  0  0  0  0  0  0  0  0
   -0.0496    2.9851    0.3329 H   0  0  0  0  0  0  0  0  0  0  0  0
   -3.0892   -0.6331    0.8022 H   0  0  0  0  0  0  0  0  0  0  0  0
   -2.1790   -1.9590   -0.0814 H   0  0  0  0  0  0  0  0  0  0  0  0
   -2.9569   -0.6093   -0.9941 H   0  0  0  0  0  0  0  0  0  0  0  0
  1  2  1  0
  2  3  1  0
  3  4  2  0
  4  5  1  0
  5  6  2  0
  5  7  1  0
  7  8  1  0
  7  9  1  0
  9 10  2  0
  9  2  1  0
  1 11  1  0
  1 12  1  0
  1 13  1  0
  3 14  1  0
  4 15  1  0
  8 16  1  0
  8 17  1  0
  8 18  1  0
M  END
