
     RDKit          3D

 32 36  0  0  0  0  0  0  0  0999 V2000
   -2.5199   -1.8475    1.9428 C   0  0  0  0  0  0  0  0  0  0  0  0
   -3.1737   -0.6662    1.6986 C   0  0  0  0  0  0  0  0  0  0  0  0
   -2.5627    0.3134    0.9881 C   0  0  0  0  0  0  0  0  0  0  0  0
   -3.1920    1.5268    0.7186 C   0  0  0  0  0  0  0  0  0  0  0  0
   -2.5772    2.5172    0.0014 C   0  0  0  0  0  0  0  0  0  0  0  0
   -1.2954    2.3576   -0.4915 C   0  0  0  0  0  0  0  0  0  0  0  0
   -0.6515    1.1786   -0.2439 C   0  0  0  0  0  0  0  0  0  0  0  0
    0.6238    1.0167   -0.7329 C   0  0  0  0  0  0  0  0  0  0  0  0
    1.1794    2.0474   -1.4422 C   0  0  0  0  0  0  0  0  0  0  0  0
    2.4855    1.8653   -1.9357 C   0  0  0  0  0  0  0  0  0  0  0  0
    3.1530    0.6901   -1.7003 C   0  0  0  0  0  0  0  0  0  0  0  0
    2.5546   -0.3189   -0.9820 C   0  0  0  0  0  0  0  0  0  0  0  0
    3.2280   -1.5112   -0.7415 C   0  0  0  0  0  0  0  0  0  0  0  0
    2.6274   -2.5096   -0.0270 C   0  0  0  0  0  0  0  0  0  0  0  0
    1.3508   -2.3815    0.4778 C   0  0  0  0  0  0  0  0  0  0  0  0
    0.6649   -1.2148    0.2544 C   0  0  0  0  0  0  0  0  0  0  0  0
   -0.6243   -1.0440    0.7455 C   0  0  0  0  0  0  0  0  0  0  0  0
   -1.2207   -2.0567    1.4646 C   0  0  0  0  0  0  0  0  0  0  0  0
   -1.2839    0.1570    0.4950 C   0  0  0  0  0  0  0  0  0  0  0  0
    1.2826   -0.1872   -0.4809 C   0  0  0  0  0  0  0  0  0  0  0  0
   -2.9960   -2.6291    2.5048 H   0  0  0  0  0  0  0  0  0  0  0  0
   -4.1938   -0.4829    2.0656 H   0  0  0  0  0  0  0  0  0  0  0  0
   -4.2015    1.6278    1.1179 H   0  0  0  0  0  0  0  0  0  0  0  0
   -3.1445    3.4482   -0.1680 H   0  0  0  0  0  0  0  0  0  0  0  0
   -0.9351    3.2041   -1.0316 H   0  0  0  0  0  0  0  0  0  0  0  0
    0.7681    2.9745   -1.6787 H   0  0  0  0  0  0  0  0  0  0  0  0
    2.9873    2.6356   -2.5039 H   0  0  0  0  0  0  0  0  0  0  0  0
    4.1707    0.5410   -2.0816 H   0  0  0  0  0  0  0  0  0  0  0  0
    4.2299   -1.6236   -1.1323 H   0  0  0  0  0  0  0  0  0  0  0  0
    3.1484   -3.4527    0.1683 H   0  0  0  0  0  0  0  0  0  0  0  0
    0.8937   -3.1732    1.0360 H   0  0  0  0  0  0  0  0  0  0  0  0
   -0.7758   -3.0022    1.6946 H   0  0  0  0  0  0  0  0  0  0  0  0
  1  2  2  0
  2  3  1  0
  3  4  2  0
  4  5  1  0
  5  6  2  0
  6  7  1  0
  7  8  1  0
  8  9  1  0
  9 10  2  0
 10 11  1  0
 11 12  2  0
 12 13  1  0
 13 14  2  0
 14 15  1  0
 15 16  2  0
 16 17  1  0
 17 18  2  0
 17 19  1  0
 16 20  1  0
 18  1  1  0
 19  3  1  0
 19  7  2  0
 20  8  2  0
 20 12  1  0
  1 21  1  0
  2 22  1  0
  4 23  1  0
  5 24  1  0
  6 25  1  0
  9 26  1  0
 10 27  1  0
 11 28  1  0
 13 29  1  0
 14 30  1  0
 15 31  1  0
 18 32  1  0
M  END
