
     RDKit          3D

 64 69  0  0  0  0  0  0  0  0999 V2000
   -7.0440    2.6504   -0.2617 C   0  0  0  0  0  0  0  0  0  0  0  0
   -6.6767    1.2136   -0.1020 C   0  0  0  0  0  0  0  0  0  0  0  0
   -7.4388    0.1456   -0.0194 C   0  0  0  0  0  0  0  0  0  0  0  0
   -6.6207   -1.0448    0.1306 C   0  0  0  0  0  0  0  0  0  0  0  0
   -7.1241   -2.4501    0.2557 C   0  0  0  0  0  0  0  0  0  0  0  0
   -5.3493   -0.7058    0.1402 N   0  0  0  0  0  4  0  0  0  0  0  0
   -5.2918    0.7036   -0.0019 C   0  0  0  0  0  0  0  0  0  0  0  0
   -4.1462    1.3196   -0.0250 C   0  0  0  0  0  0  0  0  0  0  0  0
   -2.8884    0.5978    0.0919 C   0  0  0  0  0  0  0  0  0  0  0  0
   -1.5632    1.0657    0.0880 C   0  0  0  0  0  0  0  0  0  0  0  0
   -1.1991    2.4829   -0.0311 C   0  0  0  0  0  0  0  0  0  0  0  0
   -0.7367   -0.0239    0.2256 C   0  0  0  0  0  0  0  0  0  0  0  0
    0.7396   -0.0138    0.2397 C   0  0  0  0  0  0  0  0  0  0  0  0
    1.4929   -0.6207    1.1376 C   0  0  0  0  0  0  0  0  0  0  0  0
    1.1428   -1.4359    2.3211 C   0  0  0  0  0  0  0  0  0  0  0  0
    2.9020   -0.3614    0.7710 C   0  0  0  0  0  0  0  0  0  0  0  0
    4.0468   -0.7241    1.3175 C   0  0  0  0  0  0  0  0  0  0  0  0
    5.3414   -0.3407    0.7669 C   0  0  0  0  0  0  0  0  0  0  0  0
    6.6338   -0.6213    1.1935 C   0  0  0  0  0  0  0  0  0  0  0  0
    7.0620   -1.4191    2.3719 C   0  0  0  0  0  0  0  0  0  0  0  0
    7.4493    0.0050    0.2797 C   0  0  0  0  0  0  0  0  0  0  0  0
    6.6566    0.6389   -0.6624 C   0  0  0  0  0  0  0  0  0  0  0  0
    7.1359    1.4317   -1.8258 C   0  0  0  0  0  0  0  0  0  0  0  0
    5.3487    0.4087   -0.3367 N   0  0  0  0  0  0  0  0  0  0  0  0
    4.1196    0.9021   -1.0756 B   0  0  0  0  0  4  0  0  0  0  0  0
    4.1362    2.3640   -1.0036 F   0  0  0  0  0  0  0  0  0  0  0  0
    4.1458    0.5441   -2.4844 F   0  0  0  0  0  0  0  0  0  0  0  0
    2.8562    0.4307   -0.3939 N   0  0  0  0  0  4  0  0  0  0  0  0
    1.5996    0.6484   -0.7268 C   0  0  0  0  0  0  0  0  0  0  0  0
    1.1704    1.4481   -1.9248 C   0  0  0  0  0  0  0  0  0  0  0  0
   -1.5370   -1.1439    0.3132 C   0  0  0  0  0  0  0  0  0  0  0  0
   -1.1270   -2.5702    0.4593 C   0  0  0  0  0  0  0  0  0  0  0  0
   -2.8418   -0.7231    0.2278 N   0  0  0  0  0  0  0  0  0  0  0  0
   -4.1001   -1.5693    0.2717 B   0  0  0  0  0  4  0  0  0  0  0  0
   -4.2094   -2.3363    1.4995 F   0  0  0  0  0  0  0  0  0  0  0  0
   -4.0355   -2.5079   -0.8508 F   0  0  0  0  0  0  0  0  0  0  0  0
   -6.4539    3.2911    0.4126 H   0  0  0  0  0  0  0  0  0  0  0  0
   -8.1204    2.7846   -0.1697 H   0  0  0  0  0  0  0  0  0  0  0  0
   -6.7682    2.9715   -1.3047 H   0  0  0  0  0  0  0  0  0  0  0  0
   -8.5257    0.1807   -0.0605 H   0  0  0  0  0  0  0  0  0  0  0  0
   -7.6362   -2.7298   -0.7091 H   0  0  0  0  0  0  0  0  0  0  0  0
   -7.8814   -2.5075    1.0807 H   0  0  0  0  0  0  0  0  0  0  0  0
   -6.3099   -3.1257    0.5109 H   0  0  0  0  0  0  0  0  0  0  0  0
   -4.1470    2.4021   -0.1352 H   0  0  0  0  0  0  0  0  0  0  0  0
   -1.2353    2.7860   -1.0912 H   0  0  0  0  0  0  0  0  0  0  0  0
   -1.8673    3.1457    0.5773 H   0  0  0  0  0  0  0  0  0  0  0  0
   -0.1676    2.6155    0.3356 H   0  0  0  0  0  0  0  0  0  0  0  0
    1.7898   -1.1526    3.2060 H   0  0  0  0  0  0  0  0  0  0  0  0
    0.1208   -1.1876    2.6482 H   0  0  0  0  0  0  0  0  0  0  0  0
    1.2002   -2.5145    2.1414 H   0  0  0  0  0  0  0  0  0  0  0  0
    4.0625   -1.3362    2.2198 H   0  0  0  0  0  0  0  0  0  0  0  0
    6.4479   -1.1619    3.2447 H   0  0  0  0  0  0  0  0  0  0  0  0
    6.9150   -2.5171    2.1955 H   0  0  0  0  0  0  0  0  0  0  0  0
    8.1421   -1.2768    2.5246 H   0  0  0  0  0  0  0  0  0  0  0  0
    8.5366    0.0261    0.2604 H   0  0  0  0  0  0  0  0  0  0  0  0
    8.1207    1.0615   -2.1466 H   0  0  0  0  0  0  0  0  0  0  0  0
    6.3830    1.4244   -2.6457 H   0  0  0  0  0  0  0  0  0  0  0  0
    7.2204    2.5159   -1.5268 H   0  0  0  0  0  0  0  0  0  0  0  0
    0.1842    1.0376   -2.2265 H   0  0  0  0  0  0  0  0  0  0  0  0
    1.1574    2.5207   -1.7247 H   0  0  0  0  0  0  0  0  0  0  0  0
    1.8866    1.2106   -2.7375 H   0  0  0  0  0  0  0  0  0  0  0  0
   -0.1092   -2.7267    0.0510 H   0  0  0  0  0  0  0  0  0  0  0  0
   -1.1935   -2.9327    1.4960 H   0  0  0  0  0  0  0  0  0  0  0  0
   -1.8015   -3.1935   -0.2010 H   0  0  0  0  0  0  0  0  0  0  0  0
  1  2  1  0
  2  3  2  0
  3  4  1  0
  4  5  1  0
  4  6  2  0
  6  7  1  0
  7  8  2  0
  8  9  1  0
  9 10  2  0
 10 11  1  0
 10 12  1  0
 12 13  1  0
 13 14  2  0
 14 15  1  0
 14 16  1  0
 16 17  2  0
 17 18  1  0
 18 19  2  0
 19 20  1  0
 19 21  1  0
 21 22  2  0
 22 23  1  0
 22 24  1  0
 24 25  1  0
 25 26  1  0
 25 27  1  0
 25 28  1  0
 28 29  2  0
 29 30  1  0
 12 31  2  0
 31 32  1  0
 31 33  1  0
 33 34  1  0
 34 35  1  0
 34 36  1  0
  7  2  1  0
 33  9  1  0
 34  6  1  0
 29 13  1  0
 28 16  1  0
 24 18  1  0
  1 37  1  0
  1 38  1  0
  1 39  1  0
  3 40  1  0
  5 41  1  0
  5 42  1  0
  5 43  1  0
  8 44  1  0
 11 45  1  0
 11 46  1  0
 11 47  1  0
 15 48  1  0
 15 49  1  0
 15 50  1  0
 17 51  1  0
 20 52  1  0
 20 53  1  0
 20 54  1  0
 21 55  1  0
 23 56  1  0
 23 57  1  0
 23 58  1  0
 30 59  1  0
 30 60  1  0
 30 61  1  0
 32 62  1  0
 32 63  1  0
 32 64  1  0
M  CHG  4   6   1  25  -1  28   1  34  -1
M  END
