
     RDKit          3D

 70 79  0  0  0  0  0  0  0  0999 V2000
    7.0362   -3.3711   -2.5831 C   0  0  0  0  0  0  0  0  0  0  0  0
    5.9319   -3.7433   -1.8506 C   0  0  0  0  0  0  0  0  0  0  0  0
    5.3734   -2.8956   -0.9249 C   0  0  0  0  0  0  0  0  0  0  0  0
    5.9369   -1.6601   -0.7381 C   0  0  0  0  0  0  0  0  0  0  0  0
    5.3625   -0.7748    0.2223 N   0  0  0  0  0  0  0  0  0  0  0  0
    5.9725   -0.4354    1.3729 C   0  0  0  0  0  0  0  0  0  0  0  0
    7.1996   -0.7819    1.9405 C   0  0  0  0  0  0  0  0  0  0  0  0
    7.5757   -0.2717    3.1607 C   0  0  0  0  0  0  0  0  0  0  0  0
    6.6993    0.5930    3.8028 C   0  0  0  0  0  0  0  0  0  0  0  0
    5.4826    0.9302    3.2293 C   0  0  0  0  0  0  0  0  0  0  0  0
    5.0989    0.4222    2.0056 C   0  0  0  0  0  0  0  0  0  0  0  0
    3.9680    0.5950    1.2337 C   0  0  0  0  0  0  0  0  0  0  0  0
    2.7986    1.3211    1.3651 C   0  0  0  0  0  0  0  0  0  0  0  0
    1.7953    1.3201    0.4185 C   0  0  0  0  0  0  0  0  0  0  0  0
    0.5626    2.0910    0.5677 C   0  0  0  0  0  0  0  0  0  0  0  0
    0.5848    3.2931    1.2484 C   0  0  0  0  0  0  0  0  0  0  0  0
   -0.5327    4.0799    1.4331 C   0  0  0  0  0  0  0  0  0  0  0  0
   -1.7353    3.6295    0.9029 C   0  0  0  0  0  0  0  0  0  0  0  0
   -1.8058    2.4352    0.2154 C   0  0  0  0  0  0  0  0  0  0  0  0
   -3.0393    1.9795   -0.3259 N   0  0  0  0  0  0  0  0  0  0  0  0
   -3.7820    2.6319   -1.2681 C   0  0  0  0  0  0  0  0  0  0  0  0
   -3.5839    3.8274   -1.9276 C   0  0  0  0  0  0  0  0  0  0  0  0
   -4.5131    4.2644   -2.8544 C   0  0  0  0  0  0  0  0  0  0  0  0
   -5.6499    3.5259   -3.1415 C   0  0  0  0  0  0  0  0  0  0  0  0
   -5.8102    2.3691   -2.4819 N   0  0  0  0  0  0  0  0  0  0  0  0
   -4.9207    1.9190   -1.5735 C   0  0  0  0  0  0  0  0  0  0  0  0
   -4.8919    0.7996   -0.8095 C   0  0  0  0  0  0  0  0  0  0  0  0
   -5.7597   -0.2929   -0.6770 C   0  0  0  0  0  0  0  0  0  0  0  0
   -7.2330   -0.7101   -1.4086 S   0  0  0  0  0  0  0  0  0  0  0  0
   -7.5255   -2.1975   -0.6197 C   0  0  0  0  0  0  0  0  0  0  0  0
   -8.5599   -3.1521   -0.6935 C   0  0  0  0  0  0  0  0  0  0  0  0
   -8.5303   -4.2851    0.0798 C   0  0  0  0  0  0  0  0  0  0  0  0
   -7.4506   -4.4208    0.9095 C   0  0  0  0  0  0  0  0  0  0  0  0
   -6.4565   -3.5121    0.9864 C   0  0  0  0  0  0  0  0  0  0  0  0
   -6.4452   -2.3275    0.2067 C   0  0  0  0  0  0  0  0  0  0  0  0
   -5.5192   -1.3289    0.1767 C   0  0  0  0  0  0  0  0  0  0  0  0
   -4.3246   -1.2405    0.9358 C   0  0  0  0  0  0  0  0  0  0  0  0
   -3.4962   -0.1740    0.7936 C   0  0  0  0  0  0  0  0  0  0  0  0
   -3.7337    0.8720   -0.0647 C   0  0  0  0  0  0  0  0  0  0  0  0
   -0.6524    1.6800    0.0567 C   0  0  0  0  0  0  0  0  0  0  0  0
    2.0136    0.5332   -0.7119 C   0  0  0  0  0  0  0  0  0  0  0  0
    3.1702   -0.2007   -0.8683 C   0  0  0  0  0  0  0  0  0  0  0  0
    4.1612   -0.1828    0.0954 C   0  0  0  0  0  0  0  0  0  0  0  0
    7.0366   -1.2656   -1.4549 C   0  0  0  0  0  0  0  0  0  0  0  0
    7.5821   -2.1298   -2.3786 C   0  0  0  0  0  0  0  0  0  0  0  0
    7.4809   -4.0424   -3.3181 H   0  0  0  0  0  0  0  0  0  0  0  0
    5.4913   -4.7240   -2.0046 H   0  0  0  0  0  0  0  0  0  0  0  0
    4.4880   -3.2280   -0.3560 H   0  0  0  0  0  0  0  0  0  0  0  0
    7.8464   -1.4568    1.4041 H   0  0  0  0  0  0  0  0  0  0  0  0
    8.5237   -0.5165    3.6382 H   0  0  0  0  0  0  0  0  0  0  0  0
    7.0003    0.9917    4.7629 H   0  0  0  0  0  0  0  0  0  0  0  0
    4.7883    1.6051    3.7210 H   0  0  0  0  0  0  0  0  0  0  0  0
    2.6667    1.9150    2.2492 H   0  0  0  0  0  0  0  0  0  0  0  0
    1.5281    3.6302    1.6550 H   0  0  0  0  0  0  0  0  0  0  0  0
   -0.4968    5.0214    1.9705 H   0  0  0  0  0  0  0  0  0  0  0  0
   -2.6370    4.1996    1.0151 H   0  0  0  0  0  0  0  0  0  0  0  0
   -2.7247    4.4609   -1.7608 H   0  0  0  0  0  0  0  0  0  0  0  0
   -4.4026    5.1970   -3.3993 H   0  0  0  0  0  0  0  0  0  0  0  0
   -6.3811    3.8595   -3.8639 H   0  0  0  0  0  0  0  0  0  0  0  0
   -9.3603   -2.9291   -1.3904 H   0  0  0  0  0  0  0  0  0  0  0  0
   -9.3082   -5.0022    0.0236 H   0  0  0  0  0  0  0  0  0  0  0  0
   -7.4205   -5.3155    1.5248 H   0  0  0  0  0  0  0  0  0  0  0  0
   -5.6400   -3.7230    1.6857 H   0  0  0  0  0  0  0  0  0  0  0  0
   -4.0448   -2.0103    1.6392 H   0  0  0  0  0  0  0  0  0  0  0  0
   -2.5836   -0.1277    1.3879 H   0  0  0  0  0  0  0  0  0  0  0  0
   -0.6521    0.7313   -0.4767 H   0  0  0  0  0  0  0  0  0  0  0  0
    1.2133    0.5449   -1.4462 H   0  0  0  0  0  0  0  0  0  0  0  0
    3.2802   -0.7906   -1.7660 H   0  0  0  0  0  0  0  0  0  0  0  0
    7.4889   -0.2628   -1.2993 H   0  0  0  0  0  0  0  0  0  0  0  0
    8.4647   -1.7857   -2.9389 H   0  0  0  0  0  0  0  0  0  0  0  0
  1  2  2  0
  2  3  1  0
  3  4  2  0
  4  5  1  0
  5  6  1  0
  6  7  2  0
  7  8  1  0
  8  9  2  0
  9 10  1  0
 10 11  2  0
 11 12  1  0
 12 13  2  0
 13 14  1  0
 14 15  1  0
 15 16  2  0
 16 17  1  0
 17 18  2  0
 18 19  1  0
 19 20  1  0
 20 21  1  0
 21 22  2  0
 22 23  1  0
 23 24  2  0
 24 25  1  0
 25 26  2  0
 26 27  1  0
 27 28  2  0
 28 29  1  0
 29 30  1  0
 30 31  2  0
 31 32  1  0
 32 33  2  0
 33 34  1  0
 34 35  2  0
 35 36  1  0
 36 37  2  0
 37 38  1  0
 38 39  2  0
 19 40  2  0
 14 41  2  0
 41 42  1  0
 42 43  2  0
  4 44  1  0
 44 45  2  0
 45  1  1  0
 43  5  1  0
 11  6  1  0
 43 12  1  0
 40 15  1  0
 39 20  1  0
 26 21  1  0
 39 27  1  0
 36 28  1  0
 35 30  1  0
  1 46  1  0
  2 47  1  0
  3 48  1  0
  7 49  1  0
  8 50  1  0
  9 51  1  0
 10 52  1  0
 13 53  1  0
 16 54  1  0
 17 55  1  0
 18 56  1  0
 22 57  1  0
 23 58  1  0
 24 59  1  0
 31 60  1  0
 32 61  1  0
 33 62  1  0
 34 63  1  0
 37 64  1  0
 38 65  1  0
 40 66  1  0
 41 67  1  0
 42 68  1  0
 44 69  1  0
 45 70  1  0
M  END
