
     RDKit          3D

 32 34  0  0  0  0  0  0  0  0999 V2000
    7.7187    0.4163   -0.1198 O   0  0  0  0  0  0  0  0  0  0  0  0
    7.0429   -0.1029    0.7846 N   0  0  0  0  0  4  0  0  0  0  0  0
    7.6633   -0.6367    1.8802 O   0  0  0  0  0  1  0  0  0  0  0  0
    5.6379   -0.1377    0.6739 C   0  0  0  0  0  0  0  0  0  0  0  0
    4.8174   -0.6933    1.6294 C   0  0  0  0  0  0  0  0  0  0  0  0
    3.4496   -0.7373    1.5410 C   0  0  0  0  0  0  0  0  0  0  0  0
    2.8404   -0.1934    0.4275 C   0  0  0  0  0  0  0  0  0  0  0  0
    1.3930   -0.2303    0.3155 C   0  0  0  0  0  0  0  0  0  0  0  0
    0.1883   -0.2428    0.2328 C   0  0  0  0  0  0  0  0  0  0  0  0
   -1.2464   -0.2460    0.1566 C   0  0  0  0  0  0  0  0  0  0  0  0
   -1.9778   -1.0828    0.9742 C   0  0  0  0  0  0  0  0  0  0  0  0
   -3.3540   -1.1237    0.9398 C   0  0  0  0  0  0  0  0  0  0  0  0
   -4.0523   -0.3027    0.0592 C   0  0  0  0  0  0  0  0  0  0  0  0
   -5.4297   -0.3126   -0.0071 C   0  0  0  0  0  0  0  0  0  0  0  0
   -6.1184    0.5169   -0.8960 C   0  0  0  0  0  0  0  0  0  0  0  0
   -5.4029    1.3562   -1.7171 C   0  0  0  0  0  0  0  0  0  0  0  0
   -4.0310    1.3566   -1.6415 C   0  0  0  0  0  0  0  0  0  0  0  0
   -3.3247    0.5380   -0.7627 C   0  0  0  0  0  0  0  0  0  0  0  0
   -1.9500    0.5625   -0.7117 C   0  0  0  0  0  0  0  0  0  0  0  0
    3.6270    0.3725   -0.5519 C   0  0  0  0  0  0  0  0  0  0  0  0
    5.0017    0.4035   -0.4377 C   0  0  0  0  0  0  0  0  0  0  0  0
    5.2992   -1.1179    2.4993 H   0  0  0  0  0  0  0  0  0  0  0  0
    2.8211   -1.1881    2.3209 H   0  0  0  0  0  0  0  0  0  0  0  0
   -1.4814   -1.7509    1.6870 H   0  0  0  0  0  0  0  0  0  0  0  0
   -3.8873   -1.7961    1.5999 H   0  0  0  0  0  0  0  0  0  0  0  0
   -5.9931   -0.9674    0.6332 H   0  0  0  0  0  0  0  0  0  0  0  0
   -7.1983    0.4561   -0.8935 H   0  0  0  0  0  0  0  0  0  0  0  0
   -5.9150    2.0038   -2.4097 H   0  0  0  0  0  0  0  0  0  0  0  0
   -3.4453    2.0047   -2.2737 H   0  0  0  0  0  0  0  0  0  0  0  0
   -1.4215    1.2219   -1.3587 H   0  0  0  0  0  0  0  0  0  0  0  0
    3.1351    0.7983   -1.4252 H   0  0  0  0  0  0  0  0  0  0  0  0
    5.5932    0.8553   -1.2242 H   0  0  0  0  0  0  0  0  0  0  0  0
  1  2  2  0
  2  3  1  0
  2  4  1  0
  4  5  2  0
  5  6  1  0
  6  7  2  0
  7  8  1  0
  8  9  3  0
  9 10  1  0
 10 11  2  0
 11 12  1  0
 12 13  2  0
 13 14  1  0
 14 15  2  0
 15 16  1  0
 16 17  2  0
 17 18  1  0
 18 19  2  0
  7 20  1  0
 20 21  2  0
 21  4  1  0
 19 10  1  0
 18 13  1  0
  5 22  1  0
  6 23  1  0
 11 24  1  0
 12 25  1  0
 14 26  1  0
 15 27  1  0
 16 28  1  0
 17 29  1  0
 19 30  1  0
 20 31  1  0
 21 32  1  0
M  CHG  2   2   1   3  -1
M  END
