
     RDKit          3D

 45 49  0  0  0  0  0  0  0  0999 V2000
   -6.3572   -1.9053    1.1795 C   0  0  0  0  0  0  0  0  0  0  0  0
   -6.3409   -0.7936    0.3308 O   0  0  0  0  0  0  0  0  0  0  0  0
   -5.1332   -0.2052   -0.1027 C   0  0  0  0  0  0  0  0  0  0  0  0
   -3.9496   -0.6952    0.2870 N   0  0  0  0  0  0  0  0  0  0  0  0
   -2.7704   -0.1642   -0.1030 C   0  0  0  0  0  0  0  0  0  0  0  0
   -1.5859   -0.7637    0.3703 N   0  0  0  0  0  0  0  0  0  0  0  0
   -0.2636   -0.4000    0.1099 C   0  0  0  0  0  0  0  0  0  0  0  0
    0.0803    0.6602   -0.6952 C   0  0  0  0  0  0  0  0  0  0  0  0
    1.4137    1.0111   -0.9457 C   0  0  0  0  0  0  0  0  0  0  0  0
    2.4546    0.3178   -0.4026 C   0  0  0  0  0  0  0  0  0  0  0  0
    2.1304   -0.7609    0.4170 C   0  0  0  0  0  0  0  0  0  0  0  0
    3.1764   -1.4635    0.9672 C   0  0  0  0  0  0  0  0  0  0  0  0
    2.9187   -2.5407    1.7865 C   0  0  0  0  0  0  0  0  0  0  0  0
    1.6374   -2.9143    2.0550 C   0  0  0  0  0  0  0  0  0  0  0  0
    0.5989   -2.1824    1.4824 C   0  0  0  0  0  0  0  0  0  0  0  0
    0.8075   -1.0988    0.6577 C   0  0  0  0  0  0  0  0  0  0  0  0
    4.5744   -1.1536    0.7489 C   0  0  0  0  0  0  0  0  0  0  0  0
    5.5046   -1.8098    1.2623 O   0  0  0  0  0  0  0  0  0  0  0  0
    4.8747   -0.0109   -0.1198 C   0  0  0  0  0  0  0  0  0  0  0  0
    6.1985    0.3076   -0.3457 C   0  0  0  0  0  0  0  0  0  0  0  0
    6.4693    1.3827   -1.1631 C   0  0  0  0  0  0  0  0  0  0  0  0
    5.4621    2.1207   -1.7399 C   0  0  0  0  0  0  0  0  0  0  0  0
    4.1313    1.7628   -1.4841 C   0  0  0  0  0  0  0  0  0  0  0  0
    3.8463    0.7034   -0.6788 C   0  0  0  0  0  0  0  0  0  0  0  0
   -2.8623    0.8934   -0.9118 N   0  0  0  0  0  0  0  0  0  0  0  0
   -4.0060    1.4413   -1.3452 C   0  0  0  0  0  0  0  0  0  0  0  0
   -4.0232    2.5538   -2.1949 O   0  0  0  0  0  0  0  0  0  0  0  0
   -5.2834    3.0583   -2.5967 C   0  0  0  0  0  0  0  0  0  0  0  0
   -5.1455    0.8616   -0.9175 N   0  0  0  0  0  0  0  0  0  0  0  0
   -5.4887   -1.9166    1.8635 H   0  0  0  0  0  0  0  0  0  0  0  0
   -6.3666   -2.8463    0.5868 H   0  0  0  0  0  0  0  0  0  0  0  0
   -7.2633   -1.9080    1.8222 H   0  0  0  0  0  0  0  0  0  0  0  0
   -1.7349   -1.6055    1.0112 H   0  0  0  0  0  0  0  0  0  0  0  0
   -0.7034    1.2550   -1.1597 H   0  0  0  0  0  0  0  0  0  0  0  0
    1.5790    1.8499   -1.5841 H   0  0  0  0  0  0  0  0  0  0  0  0
    3.7410   -3.1177    2.2379 H   0  0  0  0  0  0  0  0  0  0  0  0
    1.4059   -3.7652    2.7018 H   0  0  0  0  0  0  0  0  0  0  0  0
   -0.3894   -2.4961    1.7090 H   0  0  0  0  0  0  0  0  0  0  0  0
    6.9848   -0.2706    0.1062 H   0  0  0  0  0  0  0  0  0  0  0  0
    7.4951    1.6644   -1.3648 H   0  0  0  0  0  0  0  0  0  0  0  0
    5.6469    2.9756   -2.3904 H   0  0  0  0  0  0  0  0  0  0  0  0
    3.3452    2.3627   -1.9525 H   0  0  0  0  0  0  0  0  0  0  0  0
   -5.8353    3.4781   -1.7304 H   0  0  0  0  0  0  0  0  0  0  0  0
   -5.8866    2.2637   -3.1163 H   0  0  0  0  0  0  0  0  0  0  0  0
   -5.0879    3.8641   -3.3633 H   0  0  0  0  0  0  0  0  0  0  0  0
  1  2  1  0
  2  3  1  0
  3  4  2  0
  4  5  1  0
  5  6  1  0
  6  7  1  0
  7  8  2  0
  8  9  1  0
  9 10  2  0
 10 11  1  0
 11 12  2  0
 12 13  1  0
 13 14  2  0
 14 15  1  0
 15 16  2  0
 12 17  1  0
 17 18  2  0
 17 19  1  0
 19 20  2  0
 20 21  1  0
 21 22  2  0
 22 23  1  0
 23 24  2  0
  5 25  2  0
 25 26  1  0
 26 27  1  0
 27 28  1  0
 26 29  2  0
 29  3  1  0
 16  7  1  0
 24 19  1  0
 24 10  1  0
 16 11  1  0
  1 30  1  0
  1 31  1  0
  1 32  1  0
  6 33  1  0
  8 34  1  0
  9 35  1  0
 13 36  1  0
 14 37  1  0
 15 38  1  0
 20 39  1  0
 21 40  1  0
 22 41  1  0
 23 42  1  0
 28 43  1  0
 28 44  1  0
 28 45  1  0
M  END
