
     RDKit          3D

 45 46  0  0  0  0  0  0  0  0999 V2000
   -1.4654    2.4676    1.1113 C   0  0  0  0  0  0  0  0  0  0  0  0
   -2.1991    1.3339    0.5004 C   0  0  0  0  0  0  0  0  0  0  0  0
   -3.5642    1.2744    0.4843 C   0  0  0  0  0  0  0  0  0  0  0  0
   -4.2527    0.2154   -0.0788 C   0  0  0  0  0  0  0  0  0  0  0  0
   -5.6729    0.1626   -0.0921 N   0  0  0  0  0  0  0  0  0  0  0  0
   -6.4828    0.6805   -1.1631 C   0  0  0  0  0  0  0  0  0  0  0  0
   -6.3382   -0.4473    1.0401 C   0  0  0  0  0  0  0  0  0  0  0  0
   -3.4752   -0.7675   -0.6197 C   0  0  0  0  0  0  0  0  0  0  0  0
   -2.0794   -0.7685   -0.6384 C   0  0  0  0  0  0  0  0  0  0  0  0
   -1.3889   -1.8828   -1.3478 C   0  0  0  0  0  0  0  0  0  0  0  0
   -1.4227    0.2872   -0.0734 C   0  0  0  0  0  0  0  0  0  0  0  0
    0.0065    0.4726   -0.0550 C   0  0  0  0  0  0  0  0  0  0  0  0
    0.9231   -0.4422   -0.1891 C   0  0  0  0  0  0  0  0  0  0  0  0
    2.3641   -0.0207   -0.1462 C   0  0  0  0  0  0  0  0  0  0  0  0
    3.3193   -0.9157   -0.2793 C   0  0  0  0  0  0  0  0  0  0  0  0
    4.7251   -0.6219   -0.2544 C   0  0  0  0  0  0  0  0  0  0  0  0
    5.6488   -1.6376   -0.4024 C   0  0  0  0  0  0  0  0  0  0  0  0
    7.0083   -1.4244   -0.3925 C   0  0  0  0  0  0  0  0  0  0  0  0
    7.5058   -0.1308   -0.2270 C   0  0  0  0  0  0  0  0  0  0  0  0
    8.9197    0.1102   -0.2172 C   0  0  0  0  0  0  0  0  0  0  0  0
   10.0767    0.3241   -0.1969 N   0  0  0  0  0  0  0  0  0  0  0  0
    6.5849    0.8901   -0.0782 C   0  0  0  0  0  0  0  0  0  0  0  0
    5.2109    0.6387   -0.0928 C   0  0  0  0  0  0  0  0  0  0  0  0
   -0.9987    3.0984    0.3440 H   0  0  0  0  0  0  0  0  0  0  0  0
   -2.1251    3.0142    1.8127 H   0  0  0  0  0  0  0  0  0  0  0  0
   -0.6800    1.9930    1.7680 H   0  0  0  0  0  0  0  0  0  0  0  0
   -4.1384    2.0728    0.9225 H   0  0  0  0  0  0  0  0  0  0  0  0
   -5.8874    1.3766   -1.7901 H   0  0  0  0  0  0  0  0  0  0  0  0
   -7.3757    1.1958   -0.7202 H   0  0  0  0  0  0  0  0  0  0  0  0
   -6.8120   -0.1928   -1.7680 H   0  0  0  0  0  0  0  0  0  0  0  0
   -6.2921   -1.5432    0.9142 H   0  0  0  0  0  0  0  0  0  0  0  0
   -5.7581   -0.1755    1.9483 H   0  0  0  0  0  0  0  0  0  0  0  0
   -7.3747   -0.0693    1.1773 H   0  0  0  0  0  0  0  0  0  0  0  0
   -3.9671   -1.6123   -1.0677 H   0  0  0  0  0  0  0  0  0  0  0  0
   -2.1723   -2.4027   -2.0017 H   0  0  0  0  0  0  0  0  0  0  0  0
   -1.0968   -2.6330   -0.6080 H   0  0  0  0  0  0  0  0  0  0  0  0
   -0.5635   -1.5631   -1.9806 H   0  0  0  0  0  0  0  0  0  0  0  0
    0.3804    1.5317    0.0747 H   0  0  0  0  0  0  0  0  0  0  0  0
    0.7230   -1.4719   -0.2771 H   0  0  0  0  0  0  0  0  0  0  0  0
    2.6359    1.0103   -0.0063 H   0  0  0  0  0  0  0  0  0  0  0  0
    2.9913   -1.9584   -0.4187 H   0  0  0  0  0  0  0  0  0  0  0  0
    5.2743   -2.6597   -0.5339 H   0  0  0  0  0  0  0  0  0  0  0  0
    7.7205   -2.2177   -0.5076 H   0  0  0  0  0  0  0  0  0  0  0  0
    6.9800    1.9030    0.0508 H   0  0  0  0  0  0  0  0  0  0  0  0
    4.5851    1.5061    0.0321 H   0  0  0  0  0  0  0  0  0  0  0  0
  1  2  1  0
  2  3  2  0
  3  4  1  0
  4  5  1  0
  5  6  1  0
  5  7  1  0
  4  8  2  0
  8  9  1  0
  9 10  1  0
  9 11  2  0
 11 12  1  0
 12 13  2  0
 13 14  1  0
 14 15  2  0
 15 16  1  0
 16 17  2  0
 17 18  1  0
 18 19  2  0
 19 20  1  0
 20 21  3  0
 19 22  1  0
 22 23  2  0
 11  2  1  0
 23 16  1  0
  1 24  1  0
  1 25  1  0
  1 26  1  0
  3 27  1  0
  6 28  1  0
  6 29  1  0
  6 30  1  0
  7 31  1  0
  7 32  1  0
  7 33  1  0
  8 34  1  0
 10 35  1  0
 10 36  1  0
 10 37  1  0
 12 38  1  0
 13 39  1  0
 14 40  1  0
 15 41  1  0
 17 42  1  0
 18 43  1  0
 22 44  1  0
 23 45  1  0
M  END
