
     RDKit          3D

 16 17  0  0  0  0  0  0  0  0999 V2000
    2.8992   -0.3301   -0.4935 C   0  0  0  0  0  0  0  0  0  0  0  0
    3.2728   -0.2798    0.8220 C   0  0  0  0  0  0  0  0  0  0  0  0
    1.7783   -0.0728    1.6250 S   0  0  0  0  0  0  0  0  0  0  0  0
    0.7419   -0.0577    0.2710 C   0  0  0  0  0  0  0  0  0  0  0  0
   -0.7224    0.0940    0.2975 C   0  0  0  0  0  0  0  0  0  0  0  0
   -1.6249    0.1188   -0.7068 C   0  0  0  0  0  0  0  0  0  0  0  0
   -2.9211    0.2735   -0.3811 C   0  0  0  0  0  0  0  0  0  0  0  0
   -3.2234    0.3937    0.9447 C   0  0  0  0  0  0  0  0  0  0  0  0
   -1.6900    0.2867    1.6881 S   0  0  0  0  0  0  0  0  0  0  0  0
    1.5931   -0.2149   -0.7698 C   0  0  0  0  0  0  0  0  0  0  0  0
    3.6768   -0.4622   -1.2730 H   0  0  0  0  0  0  0  0  0  0  0  0
    4.2753   -0.3528    1.2627 H   0  0  0  0  0  0  0  0  0  0  0  0
   -1.2778    0.0123   -1.7621 H   0  0  0  0  0  0  0  0  0  0  0  0
   -3.7427    0.3076   -1.1248 H   0  0  0  0  0  0  0  0  0  0  0  0
   -4.2174    0.5266    1.4069 H   0  0  0  0  0  0  0  0  0  0  0  0
    1.1825   -0.2427   -1.8068 H   0  0  0  0  0  0  0  0  0  0  0  0
  1  2  2  0
  2  3  1  0
  3  4  1  0
  4  5  1  0
  5  6  2  0
  6  7  1  0
  7  8  2  0
  8  9  1  0
  4 10  2  0
 10  1  1  0
  9  5  1  0
  1 11  1  0
  2 12  1  0
  6 13  1  0
  7 14  1  0
  8 15  1  0
 10 16  1  0
M  END
