
     RDKit          3D

 32 33  0  0  0  0  0  0  0  0999 V2000
   -4.6794   -0.3863   -0.1823 C   0  0  0  0  0  0  0  0  0  0  0  0
   -3.5993    0.0532    0.6759 N   0  0  0  0  0  0  0  0  0  0  0  0
   -3.9191    0.4277    2.0326 C   0  0  0  0  0  0  0  0  0  0  0  0
   -2.2821    0.0954    0.1477 C   0  0  0  0  0  0  0  0  0  0  0  0
   -1.1968    0.5029    0.8908 C   0  0  0  0  0  0  0  0  0  0  0  0
    0.0892    0.5556    0.4139 C   0  0  0  0  0  0  0  0  0  0  0  0
    0.3333    0.1804   -0.8883 C   0  0  0  0  0  0  0  0  0  0  0  0
    1.6713    0.1794   -1.4579 C   0  0  0  0  0  0  0  0  0  0  0  0
    1.8731    0.3425   -2.7016 O   0  0  0  0  0  0  0  0  0  0  0  0
    2.8115   -0.0162   -0.5638 C   0  0  0  0  0  0  0  0  0  0  0  0
    2.7364   -0.7164    0.6203 C   0  0  0  0  0  0  0  0  0  0  0  0
    3.8223   -0.8671    1.4744 C   0  0  0  0  0  0  0  0  0  0  0  0
    5.0217   -0.2907    1.1154 C   0  0  0  0  0  0  0  0  0  0  0  0
    5.1083    0.4117   -0.0686 C   0  0  0  0  0  0  0  0  0  0  0  0
    4.0393    0.5633   -0.9139 C   0  0  0  0  0  0  0  0  0  0  0  0
   -0.7302   -0.2359   -1.6722 C   0  0  0  0  0  0  0  0  0  0  0  0
   -1.9962   -0.2714   -1.1528 C   0  0  0  0  0  0  0  0  0  0  0  0
   -5.6613   -0.3527    0.3151 H   0  0  0  0  0  0  0  0  0  0  0  0
   -4.4354   -1.4239   -0.4985 H   0  0  0  0  0  0  0  0  0  0  0  0
   -4.7083    0.2064   -1.1360 H   0  0  0  0  0  0  0  0  0  0  0  0
   -4.1118    1.5091    2.1601 H   0  0  0  0  0  0  0  0  0  0  0  0
   -3.1228    0.1181    2.7430 H   0  0  0  0  0  0  0  0  0  0  0  0
   -4.8351   -0.1414    2.3499 H   0  0  0  0  0  0  0  0  0  0  0  0
   -1.3894    0.7976    1.9160 H   0  0  0  0  0  0  0  0  0  0  0  0
    0.9183    0.9081    1.0354 H   0  0  0  0  0  0  0  0  0  0  0  0
    1.7935   -1.1872    0.8819 H   0  0  0  0  0  0  0  0  0  0  0  0
    3.7166   -1.4343    2.4118 H   0  0  0  0  0  0  0  0  0  0  0  0
    5.9082   -0.3800    1.7531 H   0  0  0  0  0  0  0  0  0  0  0  0
    6.0743    0.8574   -0.3244 H   0  0  0  0  0  0  0  0  0  0  0  0
    4.1039    1.1179   -1.8513 H   0  0  0  0  0  0  0  0  0  0  0  0
   -0.5068   -0.5223   -2.6874 H   0  0  0  0  0  0  0  0  0  0  0  0
   -2.8474   -0.6007   -1.7676 H   0  0  0  0  0  0  0  0  0  0  0  0
  1  2  1  0
  2  3  1  0
  2  4  1  0
  4  5  2  0
  5  6  1  0
  6  7  2  0
  7  8  1  0
  8  9  2  0
  8 10  1  0
 10 11  2  0
 11 12  1  0
 12 13  2  0
 13 14  1  0
 14 15  2  0
  7 16  1  0
 16 17  2  0
 17  4  1  0
 15 10  1  0
  1 18  1  0
  1 19  1  0
  1 20  1  0
  3 21  1  0
  3 22  1  0
  3 23  1  0
  5 24  1  0
  6 25  1  0
 11 26  1  0
 12 27  1  0
 13 28  1  0
 14 29  1  0
 15 30  1  0
 16 31  1  0
 17 32  1  0
M  END
