
     RDKit          3D

 49 53  0  0  0  0  0  0  0  0999 V2000
    8.0378   -0.0449    0.2843 C   0  0  0  0  0  0  0  0  0  0  0  0
    7.3602   -1.2405    0.0550 C   0  0  0  0  0  0  0  0  0  0  0  0
    5.9781   -1.2950    0.0047 C   0  0  0  0  0  0  0  0  0  0  0  0
    5.2173   -0.1587    0.1815 C   0  0  0  0  0  0  0  0  0  0  0  0
    3.7585   -0.1487    0.1382 C   0  0  0  0  0  0  0  0  0  0  0  0
    2.9840   -1.2195    0.5492 C   0  0  0  0  0  0  0  0  0  0  0  0
    1.6026   -1.1798    0.4953 C   0  0  0  0  0  0  0  0  0  0  0  0
    0.9381   -0.0665    0.0280 C   0  0  0  0  0  0  0  0  0  0  0  0
   -0.5309   -0.0212   -0.0253 C   0  0  0  0  0  0  0  0  0  0  0  0
   -1.2976   -1.1433   -0.2512 C   0  0  0  0  0  0  0  0  0  0  0  0
   -2.6685   -1.1138   -0.3014 C   0  0  0  0  0  0  0  0  0  0  0  0
   -3.5185   -2.2758   -0.5339 C   0  0  0  0  0  0  0  0  0  0  0  0
   -3.0285   -3.5410   -0.7349 C   0  0  0  0  0  0  0  0  0  0  0  0
   -3.8486   -4.6480   -0.9575 C   0  0  0  0  0  0  0  0  0  0  0  0
   -5.2109   -4.4594   -0.9758 C   0  0  0  0  0  0  0  0  0  0  0  0
   -5.6972   -3.1830   -0.7729 C   0  0  0  0  0  0  0  0  0  0  0  0
   -4.8667   -2.1511   -0.5629 N   0  0  0  0  0  0  0  0  0  0  0  0
   -3.2589    0.0696   -0.1199 N   0  0  0  0  0  0  0  0  0  0  0  0
   -2.5613    1.2181    0.1077 C   0  0  0  0  0  0  0  0  0  0  0  0
   -3.3469    2.4389    0.2893 C   0  0  0  0  0  0  0  0  0  0  0  0
   -2.7589    3.6436    0.5245 C   0  0  0  0  0  0  0  0  0  0  0  0
   -3.5395    4.7787    0.6944 C   0  0  0  0  0  0  0  0  0  0  0  0
   -4.9164    4.7015    0.6271 C   0  0  0  0  0  0  0  0  0  0  0  0
   -5.4778    3.4656    0.3870 C   0  0  0  0  0  0  0  0  0  0  0  0
   -4.7095    2.3809    0.2257 N   0  0  0  0  0  0  0  0  0  0  0  0
   -1.2052    1.1861    0.1568 C   0  0  0  0  0  0  0  0  0  0  0  0
    1.6980    1.0085   -0.3850 C   0  0  0  0  0  0  0  0  0  0  0  0
    3.0629    0.9487   -0.3237 C   0  0  0  0  0  0  0  0  0  0  0  0
    5.8894    1.0248    0.4088 C   0  0  0  0  0  0  0  0  0  0  0  0
    7.2737    1.0890    0.4607 C   0  0  0  0  0  0  0  0  0  0  0  0
    9.1089    0.0217    0.3273 H   0  0  0  0  0  0  0  0  0  0  0  0
    7.9771   -2.1231   -0.0823 H   0  0  0  0  0  0  0  0  0  0  0  0
    5.4743   -2.2261   -0.1728 H   0  0  0  0  0  0  0  0  0  0  0  0
    3.5194   -2.0961    0.9183 H   0  0  0  0  0  0  0  0  0  0  0  0
    1.0244   -2.0549    0.8331 H   0  0  0  0  0  0  0  0  0  0  0  0
   -0.7873   -2.0974   -0.3965 H   0  0  0  0  0  0  0  0  0  0  0  0
   -1.9471   -3.7014   -0.7226 H   0  0  0  0  0  0  0  0  0  0  0  0
   -3.4555   -5.6374   -1.1143 H   0  0  0  0  0  0  0  0  0  0  0  0
   -5.9081   -5.2717   -1.1416 H   0  0  0  0  0  0  0  0  0  0  0  0
   -6.7689   -3.0002   -0.7816 H   0  0  0  0  0  0  0  0  0  0  0  0
   -1.6994    3.7372    0.5816 H   0  0  0  0  0  0  0  0  0  0  0  0
   -3.0254    5.7109    0.8790 H   0  0  0  0  0  0  0  0  0  0  0  0
   -5.5248    5.5852    0.7603 H   0  0  0  0  0  0  0  0  0  0  0  0
   -6.5607    3.3330    0.3226 H   0  0  0  0  0  0  0  0  0  0  0  0
   -0.6306    2.0730    0.3339 H   0  0  0  0  0  0  0  0  0  0  0  0
    1.1722    1.9019   -0.7602 H   0  0  0  0  0  0  0  0  0  0  0  0
    3.6405    1.8000   -0.6512 H   0  0  0  0  0  0  0  0  0  0  0  0
    5.2865    1.9249    0.5496 H   0  0  0  0  0  0  0  0  0  0  0  0
    7.7457    2.0568    0.6438 H   0  0  0  0  0  0  0  0  0  0  0  0
  1  2  2  0
  2  3  1  0
  3  4  2  0
  4  5  1  0
  5  6  2  0
  6  7  1  0
  7  8  2  0
  8  9  1  0
  9 10  2  0
 10 11  1  0
 11 12  1  0
 12 13  2  0
 13 14  1  0
 14 15  2  0
 15 16  1  0
 16 17  2  0
 11 18  2  0
 18 19  1  0
 19 20  1  0
 20 21  2  0
 21 22  1  0
 22 23  2  0
 23 24  1  0
 24 25  2  0
 19 26  2  0
  8 27  1  0
 27 28  2  0
  4 29  1  0
 29 30  2  0
 30  1  1  0
 28  5  1  0
 26  9  1  0
 17 12  1  0
 25 20  1  0
  1 31  1  0
  2 32  1  0
  3 33  1  0
  6 34  1  0
  7 35  1  0
 10 36  1  0
 13 37  1  0
 14 38  1  0
 15 39  1  0
 16 40  1  0
 21 41  1  0
 22 42  1  0
 23 43  1  0
 24 44  1  0
 26 45  1  0
 27 46  1  0
 28 47  1  0
 29 48  1  0
 30 49  1  0
M  END
