
     RDKit          3D

 62 68  0  0  0  0  0  0  0  0999 V2000
   -0.2618   -2.3179    2.2052 O   0  0  0  0  0  0  0  0  0  0  0  0
   -1.3346   -2.7574    1.5320 C   0  0  0  0  0  0  0  0  0  0  0  0
   -1.7360   -4.0869    1.7203 C   0  0  0  0  0  0  0  0  0  0  0  0
   -2.8058   -4.5748    1.0677 C   0  0  0  0  0  0  0  0  0  0  0  0
   -3.5310   -3.7917    0.2044 C   0  0  0  0  0  0  0  0  0  0  0  0
   -4.6399   -4.3441   -0.4544 C   0  0  0  0  0  0  0  0  0  0  0  0
   -5.3880   -3.6017   -1.3202 C   0  0  0  0  0  0  0  0  0  0  0  0
   -5.0247   -2.2980   -1.5285 C   0  0  0  0  0  0  0  0  0  0  0  0
   -3.9236   -1.7533   -0.8728 C   0  0  0  0  0  0  0  0  0  0  0  0
   -3.1558   -2.4769    0.0012 C   0  0  0  0  0  0  0  0  0  0  0  0
   -2.0599   -1.9481    0.6588 C   0  0  0  0  0  0  0  0  0  0  0  0
   -1.6999   -0.5550    0.4141 C   0  0  0  0  0  0  0  0  0  0  0  0
   -0.6936   -0.0153    0.9975 N   0  0  0  0  0  0  0  0  0  0  0  0
   -0.3795    1.3308    0.7347 C   0  0  0  0  0  0  0  0  0  0  0  0
   -1.3197    2.2929    0.4372 C   0  0  0  0  0  0  0  0  0  0  0  0
   -0.9955    3.6156    0.1804 C   0  0  0  0  0  0  0  0  0  0  0  0
   -1.9296    4.5374   -0.1078 N   0  0  0  0  0  0  0  0  0  0  0  0
   -1.5517    5.8207   -0.3510 C   0  0  0  0  0  0  0  0  0  0  0  0
   -2.4847    6.7973   -0.6510 C   0  0  0  0  0  0  0  0  0  0  0  0
   -2.0964    8.1118   -0.9000 C   0  0  0  0  0  0  0  0  0  0  0  0
   -0.7754    8.4701   -0.8534 C   0  0  0  0  0  0  0  0  0  0  0  0
    0.1592    7.5295   -0.5611 C   0  0  0  0  0  0  0  0  0  0  0  0
   -0.2283    6.2078   -0.3105 C   0  0  0  0  0  0  0  0  0  0  0  0
    0.6874    5.2660   -0.0197 N   0  0  0  0  0  0  0  0  0  0  0  0
    0.3272    3.9954    0.2224 C   0  0  0  0  0  0  0  0  0  0  0  0
    1.2820    3.0172    0.5248 C   0  0  0  0  0  0  0  0  0  0  0  0
    0.9443    1.7043    0.7782 C   0  0  0  0  0  0  0  0  0  0  0  0
    1.9939    0.7987    1.0737 N   0  0  0  0  0  0  0  0  0  0  0  0
    2.2324   -0.2308    0.3344 C   0  0  0  0  0  0  0  0  0  0  0  0
    3.2804   -1.2109    0.5551 C   0  0  0  0  0  0  0  0  0  0  0  0
    4.1614   -1.1586    1.5984 C   0  0  0  0  0  0  0  0  0  0  0  0
    4.1151   -0.1553    2.5283 O   0  0  0  0  0  0  0  0  0  0  0  0
    5.1621   -2.1533    1.7516 C   0  0  0  0  0  0  0  0  0  0  0  0
    5.2738   -3.1786    0.8737 C   0  0  0  0  0  0  0  0  0  0  0  0
    4.3913   -3.2432   -0.1833 C   0  0  0  0  0  0  0  0  0  0  0  0
    4.4880   -4.2891   -1.0983 C   0  0  0  0  0  0  0  0  0  0  0  0
    3.6487   -4.4227   -2.1742 C   0  0  0  0  0  0  0  0  0  0  0  0
    2.6820   -3.4659   -2.3262 C   0  0  0  0  0  0  0  0  0  0  0  0
    2.5731   -2.4026   -1.4080 C   0  0  0  0  0  0  0  0  0  0  0  0
    3.4053   -2.2712   -0.3422 C   0  0  0  0  0  0  0  0  0  0  0  0
    0.1935   -1.4934    2.2500 H   0  0  0  0  0  0  0  0  0  0  0  0
   -1.1586   -4.6920    2.4007 H   0  0  0  0  0  0  0  0  0  0  0  0
   -3.1379   -5.6142    1.2006 H   0  0  0  0  0  0  0  0  0  0  0  0
   -4.9152   -5.3886   -0.2751 H   0  0  0  0  0  0  0  0  0  0  0  0
   -6.2419   -4.0602   -1.8150 H   0  0  0  0  0  0  0  0  0  0  0  0
   -5.5990   -1.6940   -2.2060 H   0  0  0  0  0  0  0  0  0  0  0  0
   -3.6930   -0.7228   -1.0818 H   0  0  0  0  0  0  0  0  0  0  0  0
   -2.2672    0.0782   -0.2689 H   0  0  0  0  0  0  0  0  0  0  0  0
   -2.3602    2.0210    0.3983 H   0  0  0  0  0  0  0  0  0  0  0  0
   -3.5277    6.5405   -0.6934 H   0  0  0  0  0  0  0  0  0  0  0  0
   -2.8330    8.8674   -1.1334 H   0  0  0  0  0  0  0  0  0  0  0  0
   -0.4874    9.5018   -1.0504 H   0  0  0  0  0  0  0  0  0  0  0  0
    1.2140    7.7463   -0.5089 H   0  0  0  0  0  0  0  0  0  0  0  0
    2.3304    3.3526    0.5507 H   0  0  0  0  0  0  0  0  0  0  0  0
    1.5391   -0.2902   -0.5045 H   0  0  0  0  0  0  0  0  0  0  0  0
    3.5015    0.5874    2.5645 H   0  0  0  0  0  0  0  0  0  0  0  0
    5.8299   -2.0659    2.5892 H   0  0  0  0  0  0  0  0  0  0  0  0
    6.0218   -3.9659    0.9454 H   0  0  0  0  0  0  0  0  0  0  0  0
    5.2765   -5.0411   -0.9464 H   0  0  0  0  0  0  0  0  0  0  0  0
    3.7319   -5.2418   -2.8823 H   0  0  0  0  0  0  0  0  0  0  0  0
    1.9922   -3.5188   -3.1547 H   0  0  0  0  0  0  0  0  0  0  0  0
    1.7980   -1.6987   -1.5917 H   0  0  0  0  0  0  0  0  0  0  0  0
  1  2  1  0
  2  3  2  0
  3  4  1  0
  4  5  2  0
  5  6  1  0
  6  7  2  0
  7  8  1  0
  8  9  2  0
  9 10  1  0
 10 11  2  0
 11 12  1  0
 12 13  2  0
 13 14  1  0
 14 15  2  0
 15 16  1  0
 16 17  2  0
 17 18  1  0
 18 19  2  0
 19 20  1  0
 20 21  2  0
 21 22  1  0
 22 23  2  0
 23 24  1  0
 24 25  2  0
 25 26  1  0
 26 27  2  0
 27 28  1  0
 28 29  2  0
 29 30  1  0
 30 31  2  0
 31 32  1  0
 31 33  1  0
 33 34  2  0
 34 35  1  0
 35 36  2  0
 36 37  1  0
 37 38  2  0
 38 39  1  0
 39 40  2  0
 11  2  1  0
 27 14  1  0
 40 30  1  0
 10  5  1  0
 25 16  1  0
 40 35  1  0
 23 18  1  0
  1 41  1  0
  3 42  1  0
  4 43  1  0
  6 44  1  0
  7 45  1  0
  8 46  1  0
  9 47  1  0
 12 48  1  0
 15 49  1  0
 19 50  1  0
 20 51  1  0
 21 52  1  0
 22 53  1  0
 26 54  1  0
 29 55  1  0
 32 56  1  0
 33 57  1  0
 34 58  1  0
 36 59  1  0
 37 60  1  0
 38 61  1  0
 39 62  1  0
M  END
