
     RDKit          3D

 33 35  0  0  0  0  0  0  0  0999 V2000
   -5.1690    0.1568    0.5754 C   0  0  0  0  0  0  0  0  0  0  0  0
   -3.9271   -0.2231   -0.2109 C   0  0  0  0  0  0  0  0  0  0  0  0
   -3.3992    0.9693   -0.9253 C   0  0  0  0  0  0  0  0  0  0  0  0
   -1.9315    1.1054   -0.8265 C   0  0  0  0  0  0  0  0  0  0  0  0
   -1.1264    0.1587   -0.4315 C   0  0  0  0  0  0  0  0  0  0  0  0
    0.3426    0.3423   -0.3486 C   0  0  0  0  0  0  0  0  0  0  0  0
    1.0650    1.4624   -0.6516 C   0  0  0  0  0  0  0  0  0  0  0  0
    2.3919    1.4026   -0.5015 C   0  0  0  0  0  0  0  0  0  0  0  0
    2.9143    0.2194   -0.0552 C   0  0  0  0  0  0  0  0  0  0  0  0
    4.3479   -0.0821    0.1861 C   0  0  0  0  0  0  0  0  0  0  0  0
    4.8741   -1.2667    0.6332 C   0  0  0  0  0  0  0  0  0  0  0  0
    6.2078   -1.3208    0.7821 C   0  0  0  0  0  0  0  0  0  0  0  0
    6.9249   -0.1995    0.4782 C   0  0  0  0  0  0  0  0  0  0  0  0
    5.7175    0.9038   -0.0086 S   0  0  0  0  0  0  0  0  0  0  0  0
    1.5421   -0.7680    0.1397 S   0  0  0  0  0  0  0  0  0  0  0  0
   -1.6941   -1.1675   -0.0429 C   0  0  0  0  0  0  0  0  0  0  0  0
   -2.9708   -0.8894    0.7265 C   0  0  0  0  0  0  0  0  0  0  0  0
   -4.9212    0.7272    1.5000 H   0  0  0  0  0  0  0  0  0  0  0  0
   -5.7801    0.8071   -0.1023 H   0  0  0  0  0  0  0  0  0  0  0  0
   -5.6965   -0.7866    0.8205 H   0  0  0  0  0  0  0  0  0  0  0  0
   -4.2580   -0.9928   -0.9473 H   0  0  0  0  0  0  0  0  0  0  0  0
   -3.8483    1.9062   -0.5359 H   0  0  0  0  0  0  0  0  0  0  0  0
   -3.6748    0.9107   -2.0042 H   0  0  0  0  0  0  0  0  0  0  0  0
   -1.4632    2.0635   -1.0999 H   0  0  0  0  0  0  0  0  0  0  0  0
    0.5377    2.3743   -1.0078 H   0  0  0  0  0  0  0  0  0  0  0  0
    3.0824    2.2475   -0.7157 H   0  0  0  0  0  0  0  0  0  0  0  0
    4.2058   -2.1378    0.8583 H   0  0  0  0  0  0  0  0  0  0  0  0
    6.7496   -2.2238    1.1367 H   0  0  0  0  0  0  0  0  0  0  0  0
    8.0199   -0.0618    0.5397 H   0  0  0  0  0  0  0  0  0  0  0  0
   -1.0097   -1.7569    0.5805 H   0  0  0  0  0  0  0  0  0  0  0  0
   -1.9472   -1.7413   -0.9622 H   0  0  0  0  0  0  0  0  0  0  0  0
   -2.6996   -0.2751    1.5921 H   0  0  0  0  0  0  0  0  0  0  0  0
   -3.4068   -1.8639    1.0228 H   0  0  0  0  0  0  0  0  0  0  0  0
  1  2  1  0
  2  3  1  0
  3  4  1  0
  4  5  2  0
  5  6  1  0
  6  7  2  0
  7  8  1  0
  8  9  2  0
  9 10  1  0
 10 11  2  0
 11 12  1  0
 12 13  2  0
 13 14  1  0
  9 15  1  0
  5 16  1  0
 16 17  1  0
 17  2  1  0
 15  6  1  0
 14 10  1  0
  1 18  1  0
  1 19  1  0
  1 20  1  0
  2 21  1  0
  3 22  1  0
  3 23  1  0
  4 24  1  0
  7 25  1  0
  8 26  1  0
 11 27  1  0
 12 28  1  0
 13 29  1  0
 16 30  1  0
 16 31  1  0
 17 32  1  0
 17 33  1  0
M  END
