
     RDKit          3D

 43 46  0  0  0  0  0  0  0  0999 V2000
   -1.7564    3.5912    0.4229 C   0  0  0  0  0  0  0  0  0  0  0  0
   -1.6098    2.6293   -0.6086 O   0  0  0  0  0  0  0  0  0  0  0  0
   -1.4683    1.2732   -0.3425 C   0  0  0  0  0  0  0  0  0  0  0  0
   -2.5867    0.4474   -0.2296 C   0  0  0  0  0  0  0  0  0  0  0  0
   -3.8198    1.0138   -0.3894 C   0  0  0  0  0  0  0  0  0  0  0  0
   -4.9900    0.2713   -0.2946 C   0  0  0  0  0  0  0  0  0  0  0  0
   -4.8687   -1.0837   -0.0288 C   0  0  0  0  0  0  0  0  0  0  0  0
   -3.6560   -1.6952    0.1388 C   0  0  0  0  0  0  0  0  0  0  0  0
   -2.5115   -0.9012    0.0331 C   0  0  0  0  0  0  0  0  0  0  0  0
   -1.2776   -1.4569    0.1908 C   0  0  0  0  0  0  0  0  0  0  0  0
   -1.1984   -2.8107    0.4547 O   0  0  0  0  0  0  0  0  0  0  0  0
   -1.1080   -3.8054   -0.5517 C   0  0  0  0  0  0  0  0  0  0  0  0
   -0.1504   -0.6740    0.0863 C   0  0  0  0  0  0  0  0  0  0  0  0
   -0.2292    0.6962   -0.1809 C   0  0  0  0  0  0  0  0  0  0  0  0
    1.0469    1.2346   -0.2359 C   0  0  0  0  0  0  0  0  0  0  0  0
    1.5069    2.5120   -0.4680 C   0  0  0  0  0  0  0  0  0  0  0  0
    2.8741    2.7581   -0.4653 C   0  0  0  0  0  0  0  0  0  0  0  0
    3.7579    1.7346   -0.2330 C   0  0  0  0  0  0  0  0  0  0  0  0
    3.2633    0.4542   -0.0018 C   0  0  0  0  0  0  0  0  0  0  0  0
    4.1290   -0.6029    0.2361 O   0  0  0  0  0  0  0  0  0  0  0  0
    5.5179   -0.3441    0.2370 C   0  0  0  0  0  0  0  0  0  0  0  0
    1.9030    0.1694    0.0034 C   0  0  0  0  0  0  0  0  0  0  0  0
    1.1676   -0.9401    0.1893 N   0  0  0  0  0  0  0  0  0  0  0  0
    1.6688   -2.2679    0.4676 C   0  0  0  0  0  0  0  0  0  0  0  0
   -1.0637    4.4401    0.2470 H   0  0  0  0  0  0  0  0  0  0  0  0
   -1.5192    3.1794    1.4198 H   0  0  0  0  0  0  0  0  0  0  0  0
   -2.7823    4.0400    0.4110 H   0  0  0  0  0  0  0  0  0  0  0  0
   -3.8817    2.0625   -0.5938 H   0  0  0  0  0  0  0  0  0  0  0  0
   -5.9721    0.7041   -0.4183 H   0  0  0  0  0  0  0  0  0  0  0  0
   -5.7437   -1.7283    0.0592 H   0  0  0  0  0  0  0  0  0  0  0  0
   -3.5435   -2.7675    0.3498 H   0  0  0  0  0  0  0  0  0  0  0  0
   -1.9666   -4.5064   -0.4772 H   0  0  0  0  0  0  0  0  0  0  0  0
   -1.0135   -3.3546   -1.5581 H   0  0  0  0  0  0  0  0  0  0  0  0
   -0.1951   -4.4203   -0.3630 H   0  0  0  0  0  0  0  0  0  0  0  0
    0.8754    3.3541   -0.6594 H   0  0  0  0  0  0  0  0  0  0  0  0
    3.2869    3.7387   -0.6412 H   0  0  0  0  0  0  0  0  0  0  0  0
    4.8366    1.8818   -0.2217 H   0  0  0  0  0  0  0  0  0  0  0  0
    5.7786    0.2606    1.1467 H   0  0  0  0  0  0  0  0  0  0  0  0
    5.8549    0.1768   -0.6927 H   0  0  0  0  0  0  0  0  0  0  0  0
    6.1179   -1.2674    0.3004 H   0  0  0  0  0  0  0  0  0  0  0  0
    1.6261   -2.8518   -0.4965 H   0  0  0  0  0  0  0  0  0  0  0  0
    2.6956   -2.3125    0.8259 H   0  0  0  0  0  0  0  0  0  0  0  0
    1.0050   -2.8324    1.1777 H   0  0  0  0  0  0  0  0  0  0  0  0
  1  2  1  0
  2  3  1  0
  3  4  2  0
  4  5  1  0
  5  6  2  0
  6  7  1  0
  7  8  2  0
  8  9  1  0
  9 10  2  0
 10 11  1  0
 11 12  1  0
 10 13  1  0
 13 14  2  0
 14 15  1  0
 15 16  2  0
 16 17  1  0
 17 18  2  0
 18 19  1  0
 19 20  1  0
 20 21  1  0
 19 22  2  0
 22 23  1  0
 23 24  1  0
 14  3  1  0
 22 15  1  0
  9  4  1  0
 23 13  1  0
  1 25  1  0
  1 26  1  0
  1 27  1  0
  5 28  1  0
  6 29  1  0
  7 30  1  0
  8 31  1  0
 12 32  1  0
 12 33  1  0
 12 34  1  0
 16 35  1  0
 17 36  1  0
 18 37  1  0
 21 38  1  0
 21 39  1  0
 21 40  1  0
 24 41  1  0
 24 42  1  0
 24 43  1  0
M  END
