
     RDKit          3D

 12 12  0  0  0  0  0  0  0  0999 V2000
    0.3530    2.6525   -0.0540 O   0  0  0  0  0  0  0  0  0  0  0  0
    0.1667    1.3913   -0.0285 C   0  0  0  0  0  0  0  0  0  0  0  0
    1.3075    0.4863    0.0005 C   0  0  0  0  0  0  0  0  0  0  0  0
    2.9627    1.0978    0.0012 Cl  0  0  0  0  0  0  0  0  0  0  0  0
    1.1713   -0.8425    0.0279 C   0  0  0  0  0  0  0  0  0  0  0  0
    2.5741   -1.9032    0.0623 Cl  0  0  0  0  0  0  0  0  0  0  0  0
   -0.1795   -1.4031    0.0286 C   0  0  0  0  0  0  0  0  0  0  0  0
   -0.3611   -2.6593    0.0540 O   0  0  0  0  0  0  0  0  0  0  0  0
   -1.3081   -0.4747   -0.0007 C   0  0  0  0  0  0  0  0  0  0  0  0
   -2.9583   -1.1004   -0.0011 Cl  0  0  0  0  0  0  0  0  0  0  0  0
   -1.1707    0.8303   -0.0276 C   0  0  0  0  0  0  0  0  0  0  0  0
   -2.5576    1.9250   -0.0627 Cl  0  0  0  0  0  0  0  0  0  0  0  0
  1  2  2  0
  2  3  1  0
  3  4  1  0
  3  5  2  0
  5  6  1  0
  5  7  1  0
  7  8  2  0
  7  9  1  0
  9 10  1  0
  9 11  2  0
 11 12  1  0
 11  2  1  0
M  END
