
     RDKit          3D

 64 69  0  0  0  0  0  0  0  0999 V2000
   -6.1983    5.6154   -0.0327 C   0  0  0  0  0  0  0  0  0  0  0  0
   -5.1376    5.1435   -0.8319 O   0  0  0  0  0  0  0  0  0  0  0  0
   -4.6659    3.8459   -0.7104 C   0  0  0  0  0  0  0  0  0  0  0  0
   -5.1585    2.9284    0.1595 C   0  0  0  0  0  0  0  0  0  0  0  0
   -4.6117    1.6338    0.2085 C   0  0  0  0  0  0  0  0  0  0  0  0
   -3.5962    1.2300   -0.5784 C   0  0  0  0  0  0  0  0  0  0  0  0
   -2.9644   -0.0341   -0.6372 N   0  0  0  0  0  0  0  0  0  0  0  0
   -3.6092   -1.2692   -0.6656 C   0  0  0  0  0  0  0  0  0  0  0  0
   -3.3591   -2.2328   -1.6330 C   0  0  0  0  0  0  0  0  0  0  0  0
   -3.9307   -3.4925   -1.5703 C   0  0  0  0  0  0  0  0  0  0  0  0
   -4.7770   -3.8683   -0.5571 C   0  0  0  0  0  0  0  0  0  0  0  0
   -5.3284   -5.1389   -0.5322 O   0  0  0  0  0  0  0  0  0  0  0  0
   -6.2042   -5.5395    0.5091 C   0  0  0  0  0  0  0  0  0  0  0  0
   -5.0340   -2.9235    0.4066 C   0  0  0  0  0  0  0  0  0  0  0  0
   -4.4702   -1.6475    0.3686 C   0  0  0  0  0  0  0  0  0  0  0  0
   -1.5268    0.0401   -0.4994 C   0  0  0  0  0  0  0  0  0  0  0  0
   -1.1207    0.8641    0.5688 C   0  0  0  0  0  0  0  0  0  0  0  0
    0.2222    1.0196    0.7844 C   0  0  0  0  0  0  0  0  0  0  0  0
    1.1908    0.4150    0.0142 C   0  0  0  0  0  0  0  0  0  0  0  0
    2.6025    0.6236    0.2997 C   0  0  0  0  0  0  0  0  0  0  0  0
    3.0790    1.8124    0.8286 C   0  0  0  0  0  0  0  0  0  0  0  0
    4.4262    1.9619    1.0818 C   0  0  0  0  0  0  0  0  0  0  0  0
    5.3382    0.9580    0.8257 C   0  0  0  0  0  0  0  0  0  0  0  0
    4.8786   -0.2365    0.2970 C   0  0  0  0  0  0  0  0  0  0  0  0
    3.5291   -0.3707    0.0494 C   0  0  0  0  0  0  0  0  0  0  0  0
    5.8464   -1.3013    0.0254 C   0  0  0  0  0  0  0  0  0  0  0  0
    5.4361   -2.3794   -0.4512 O   0  0  0  0  0  0  0  0  0  0  0  0
    7.2742   -1.1413    0.2943 C   0  0  0  0  0  0  0  0  0  0  0  0
    8.1997   -2.1355    0.0439 C   0  0  0  0  0  0  0  0  0  0  0  0
    9.5510   -1.9671    0.3050 C   0  0  0  0  0  0  0  0  0  0  0  0
    9.9938   -0.7715    0.8317 C   0  0  0  0  0  0  0  0  0  0  0  0
    9.0706    0.2254    1.0835 C   0  0  0  0  0  0  0  0  0  0  0  0
    7.7204    0.0541    0.8214 C   0  0  0  0  0  0  0  0  0  0  0  0
    6.7595    1.1268    1.0970 C   0  0  0  0  0  0  0  0  0  0  0  0
    7.1799    2.2221    1.5817 O   0  0  0  0  0  0  0  0  0  0  0  0
    0.7444   -0.3788   -1.0164 C   0  0  0  0  0  0  0  0  0  0  0  0
   -0.6105   -0.5726   -1.2819 C   0  0  0  0  0  0  0  0  0  0  0  0
   -3.1022    2.2093   -1.4762 C   0  0  0  0  0  0  0  0  0  0  0  0
   -3.6267    3.4726   -1.5325 C   0  0  0  0  0  0  0  0  0  0  0  0
   -7.1351    5.0760   -0.2380 H   0  0  0  0  0  0  0  0  0  0  0  0
   -6.3052    6.7019   -0.1228 H   0  0  0  0  0  0  0  0  0  0  0  0
   -5.9076    5.4022    1.0361 H   0  0  0  0  0  0  0  0  0  0  0  0
   -5.9646    3.2046    0.8031 H   0  0  0  0  0  0  0  0  0  0  0  0
   -5.0535    0.9902    0.9215 H   0  0  0  0  0  0  0  0  0  0  0  0
   -2.7557   -2.0651   -2.5006 H   0  0  0  0  0  0  0  0  0  0  0  0
   -3.7311   -4.2452   -2.3294 H   0  0  0  0  0  0  0  0  0  0  0  0
   -6.5413   -6.5696    0.4040 H   0  0  0  0  0  0  0  0  0  0  0  0
   -5.7354   -5.4195    1.5055 H   0  0  0  0  0  0  0  0  0  0  0  0
   -7.0893   -4.8463    0.4774 H   0  0  0  0  0  0  0  0  0  0  0  0
   -5.7093   -3.2036    1.2259 H   0  0  0  0  0  0  0  0  0  0  0  0
   -4.7360   -1.0393    1.2012 H   0  0  0  0  0  0  0  0  0  0  0  0
   -1.8755    1.3564    1.1961 H   0  0  0  0  0  0  0  0  0  0  0  0
    0.5619    1.6547    1.6083 H   0  0  0  0  0  0  0  0  0  0  0  0
    2.3551    2.5921    1.0253 H   0  0  0  0  0  0  0  0  0  0  0  0
    4.8066    2.9024    1.5008 H   0  0  0  0  0  0  0  0  0  0  0  0
    3.2051   -1.3263   -0.3673 H   0  0  0  0  0  0  0  0  0  0  0  0
    7.8666   -3.0600   -0.3621 H   0  0  0  0  0  0  0  0  0  0  0  0
   10.2888   -2.7353    0.1148 H   0  0  0  0  0  0  0  0  0  0  0  0
   11.0520   -0.5902    1.0553 H   0  0  0  0  0  0  0  0  0  0  0  0
    9.3771    1.1850    1.4991 H   0  0  0  0  0  0  0  0  0  0  0  0
    1.4364   -0.8868   -1.6650 H   0  0  0  0  0  0  0  0  0  0  0  0
   -0.9222   -1.1883   -2.1050 H   0  0  0  0  0  0  0  0  0  0  0  0
   -2.2856    1.9125   -2.1207 H   0  0  0  0  0  0  0  0  0  0  0  0
   -3.2123    4.1962   -2.2428 H   0  0  0  0  0  0  0  0  0  0  0  0
  1  2  1  0
  2  3  1  0
  3  4  2  0
  4  5  1  0
  5  6  2  0
  6  7  1  0
  7  8  1  0
  8  9  2  0
  9 10  1  0
 10 11  2  0
 11 12  1  0
 12 13  1  0
 11 14  1  0
 14 15  2  0
  7 16  1  0
 16 17  2  0
 17 18  1  0
 18 19  2  0
 19 20  1  0
 20 21  2  0
 21 22  1  0
 22 23  2  0
 23 24  1  0
 24 25  2  0
 24 26  1  0
 26 27  2  0
 26 28  1  0
 28 29  2  0
 29 30  1  0
 30 31  2  0
 31 32  1  0
 32 33  2  0
 33 34  1  0
 34 35  2  0
 19 36  1  0
 36 37  2  0
  6 38  1  0
 38 39  2  0
 39  3  1  0
 15  8  1  0
 37 16  1  0
 25 20  1  0
 33 28  1  0
 34 23  1  0
  1 40  1  0
  1 41  1  0
  1 42  1  0
  4 43  1  0
  5 44  1  0
  9 45  1  0
 10 46  1  0
 13 47  1  0
 13 48  1  0
 13 49  1  0
 14 50  1  0
 15 51  1  0
 17 52  1  0
 18 53  1  0
 21 54  1  0
 22 55  1  0
 25 56  1  0
 29 57  1  0
 30 58  1  0
 31 59  1  0
 32 60  1  0
 36 61  1  0
 37 62  1  0
 38 63  1  0
 39 64  1  0
M  END
