
     RDKit          3D

 58 63  0  0  0  0  0  0  0  0999 V2000
   -6.6562    0.7308   -1.7477 C   0  0  0  0  0  0  0  0  0  0  0  0
   -6.0268    1.1721   -0.4677 C   0  0  0  0  0  0  0  0  0  0  0  0
   -4.6897    0.5726   -0.2438 C   0  0  0  0  0  0  0  0  0  0  0  0
   -4.4582   -0.7155    0.1565 C   0  0  0  0  0  0  0  0  0  0  0  0
   -5.4309   -1.7985    0.4588 C   0  0  0  0  0  0  0  0  0  0  0  0
   -3.0829   -0.8897    0.2514 C   0  0  0  0  0  0  0  0  0  0  0  0
   -2.5219    0.2730   -0.0872 N   0  0  0  0  0  0  0  0  0  0  0  0
   -3.4926    1.2025   -0.4000 C   0  0  0  0  0  0  0  0  0  0  0  0
   -3.2395    2.6271   -0.8272 C   0  0  0  0  0  0  0  0  0  0  0  0
   -1.0171    0.4845   -0.1219 B   0  0  0  0  0  4  0  0  0  0  0  0
   -0.6096    0.8123   -1.5071 F   0  0  0  0  0  0  0  0  0  0  0  0
   -0.6715    1.6409    0.7305 F   0  0  0  0  0  0  0  0  0  0  0  0
   -0.2574   -0.7397    0.3493 N   0  0  0  0  0  4  0  0  0  0  0  0
    1.0740   -0.9325    0.4849 C   0  0  0  0  0  0  0  0  0  0  0  0
    2.0132    0.0929    0.1610 C   0  0  0  0  0  0  0  0  0  0  0  0
    3.2651    0.3586    0.2465 C   0  0  0  0  0  0  0  0  0  0  0  0
    4.4056   -0.3596    0.8089 C   0  0  0  0  0  0  0  0  0  0  0  0
    4.5199   -1.4304    1.6592 C   0  0  0  0  0  0  0  0  0  0  0  0
    5.7258   -1.8976    2.0896 C   0  0  0  0  0  0  0  0  0  0  0  0
    6.8840   -1.2770    1.6646 C   0  0  0  0  0  0  0  0  0  0  0  0
    6.8154   -0.1951    0.8143 C   0  0  0  0  0  0  0  0  0  0  0  0
    5.5573    0.2585    0.3910 C   0  0  0  0  0  0  0  0  0  0  0  0
    5.2035    1.3946   -0.4416 C   0  0  0  0  0  0  0  0  0  0  0  0
    6.0306    2.3215   -1.0867 C   0  0  0  0  0  0  0  0  0  0  0  0
    5.4244    3.3178   -1.8218 C   0  0  0  0  0  0  0  0  0  0  0  0
    4.0640    3.4357   -1.9448 C   0  0  0  0  0  0  0  0  0  0  0  0
    3.2680    2.5166   -1.3047 C   0  0  0  0  0  0  0  0  0  0  0  0
    3.8609    1.5118   -0.5639 C   0  0  0  0  0  0  0  0  0  0  0  0
    1.2745   -2.2989    0.8931 C   0  0  0  0  0  0  0  0  0  0  0  0
    0.0978   -2.8866    1.0022 C   0  0  0  0  0  0  0  0  0  0  0  0
   -0.9297   -1.9130    0.6595 C   0  0  0  0  0  0  0  0  0  0  0  0
   -2.2549   -2.0211    0.6365 C   0  0  0  0  0  0  0  0  0  0  0  0
   -2.8355   -3.3294    1.0159 C   0  0  0  0  0  0  0  0  0  0  0  0
   -6.4446    1.4061   -2.6014 H   0  0  0  0  0  0  0  0  0  0  0  0
   -6.3891   -0.3302   -1.9969 H   0  0  0  0  0  0  0  0  0  0  0  0
   -7.7579    0.7417   -1.6172 H   0  0  0  0  0  0  0  0  0  0  0  0
   -5.9777    2.2866   -0.4867 H   0  0  0  0  0  0  0  0  0  0  0  0
   -6.7075    0.9032    0.3651 H   0  0  0  0  0  0  0  0  0  0  0  0
   -5.5538   -2.4892   -0.4126 H   0  0  0  0  0  0  0  0  0  0  0  0
   -6.4667   -1.3611    0.5871 H   0  0  0  0  0  0  0  0  0  0  0  0
   -5.2346   -2.3120    1.4097 H   0  0  0  0  0  0  0  0  0  0  0  0
   -2.3104    2.9643   -0.3231 H   0  0  0  0  0  0  0  0  0  0  0  0
   -4.0605    3.2386   -0.3869 H   0  0  0  0  0  0  0  0  0  0  0  0
   -3.1481    2.7110   -1.9092 H   0  0  0  0  0  0  0  0  0  0  0  0
    1.4640    1.0018   -0.3231 H   0  0  0  0  0  0  0  0  0  0  0  0
    3.6172   -1.8462    2.0404 H   0  0  0  0  0  0  0  0  0  0  0  0
    5.7664   -2.7624    2.7697 H   0  0  0  0  0  0  0  0  0  0  0  0
    7.8355   -1.6597    2.0137 H   0  0  0  0  0  0  0  0  0  0  0  0
    7.7087    0.3206    0.4595 H   0  0  0  0  0  0  0  0  0  0  0  0
    7.0909    2.2271   -0.9896 H   0  0  0  0  0  0  0  0  0  0  0  0
    6.0931    4.0290   -2.3156 H   0  0  0  0  0  0  0  0  0  0  0  0
    3.6499    4.2369   -2.5339 H   0  0  0  0  0  0  0  0  0  0  0  0
    2.1904    2.5707   -1.3735 H   0  0  0  0  0  0  0  0  0  0  0  0
    2.2011   -2.8545    1.0573 H   0  0  0  0  0  0  0  0  0  0  0  0
   -0.0419   -3.9135    1.2973 H   0  0  0  0  0  0  0  0  0  0  0  0
   -3.1786   -3.3416    2.0798 H   0  0  0  0  0  0  0  0  0  0  0  0
   -3.6118   -3.6854    0.3084 H   0  0  0  0  0  0  0  0  0  0  0  0
   -2.0433   -4.1209    0.9739 H   0  0  0  0  0  0  0  0  0  0  0  0
  1  2  1  0
  2  3  1  0
  3  4  1  0
  4  5  1  0
  4  6  2  0
  6  7  1  0
  7  8  1  0
  8  9  1  0
  7 10  1  0
 10 11  1  0
 10 12  1  0
 10 13  1  0
 13 14  2  0
 14 15  1  0
 15 16  2  3
 16 17  1  0
 17 18  2  0
 18 19  1  0
 19 20  2  0
 20 21  1  0
 21 22  2  0
 22 23  1  0
 23 24  2  0
 24 25  1  0
 25 26  2  0
 26 27  1  0
 27 28  2  0
 14 29  1  0
 29 30  2  0
 30 31  1  0
 31 32  2  0
 32 33  1  0
  8  3  2  0
 31 13  1  0
 32  6  1  0
 28 16  1  0
 22 17  1  0
 28 23  1  0
  1 34  1  0
  1 35  1  0
  1 36  1  0
  2 37  1  0
  2 38  1  0
  5 39  1  0
  5 40  1  0
  5 41  1  0
  9 42  1  0
  9 43  1  0
  9 44  1  0
 15 45  1  0
 18 46  1  0
 19 47  1  0
 20 48  1  0
 21 49  1  0
 24 50  1  0
 25 51  1  0
 26 52  1  0
 27 53  1  0
 29 54  1  0
 30 55  1  0
 33 56  1  0
 33 57  1  0
 33 58  1  0
M  CHG  2  10  -1  13   1
M  END
