
     RDKit          3D

 58 62  0  0  0  0  0  0  0  0999 V2000
    4.7257   -0.9389   -0.3605 C   0  0  0  0  0  0  0  0  0  0  0  0
    5.6888   -0.9201    0.5147 C   0  0  0  0  0  0  0  0  0  0  0  0
    6.9520   -1.6453    0.3466 C   0  0  0  0  0  0  0  0  0  0  0  0
    7.2586   -2.4186   -0.7425 C   0  0  0  0  0  0  0  0  0  0  0  0
    8.4899   -3.0793   -0.8252 C   0  0  0  0  0  0  0  0  0  0  0  0
    9.3913   -2.9640    0.1655 N   0  0  0  0  0  0  0  0  0  0  0  0
    9.0661   -2.1944    1.2316 C   0  0  0  0  0  0  0  0  0  0  0  0
    7.8855   -1.5621    1.3089 N   0  0  0  0  0  0  0  0  0  0  0  0
    3.4895   -0.2156   -0.1722 C   0  0  0  0  0  0  0  0  0  0  0  0
    3.2226    0.5463    0.9315 C   0  0  0  0  0  0  0  0  0  0  0  0
    2.0137    1.2394    1.0904 C   0  0  0  0  0  0  0  0  0  0  0  0
    1.0480    1.1656    0.1162 C   0  0  0  0  0  0  0  0  0  0  0  0
   -0.1977    1.8655    0.2549 N   0  0  0  0  0  0  0  0  0  0  0  0
   -0.1709    3.2147    0.7013 C   0  0  0  0  0  0  0  0  0  0  0  0
   -1.0497    3.6847    1.6740 C   0  0  0  0  0  0  0  0  0  0  0  0
   -0.9747    5.0052    2.0659 C   0  0  0  0  0  0  0  0  0  0  0  0
   -0.0523    5.8769    1.5215 C   0  0  0  0  0  0  0  0  0  0  0  0
    0.8023    5.3870    0.5641 C   0  0  0  0  0  0  0  0  0  0  0  0
    0.7538    4.0677    0.1482 C   0  0  0  0  0  0  0  0  0  0  0  0
   -1.4084    1.1769   -0.0613 C   0  0  0  0  0  0  0  0  0  0  0  0
   -2.4045    1.7584   -0.8149 C   0  0  0  0  0  0  0  0  0  0  0  0
   -3.5650    1.0480   -1.0962 C   0  0  0  0  0  0  0  0  0  0  0  0
   -3.7175   -0.2454   -0.6172 C   0  0  0  0  0  0  0  0  0  0  0  0
   -4.9618   -0.9841   -0.9287 C   0  0  0  0  0  0  0  0  0  0  0  0
   -5.2130   -2.1992   -0.5333 C   0  0  0  0  0  0  0  0  0  0  0  0
   -6.4543   -2.8982   -0.8603 C   0  0  0  0  0  0  0  0  0  0  0  0
   -7.4514   -2.3382   -1.6052 C   0  0  0  0  0  0  0  0  0  0  0  0
   -8.5865   -3.0590   -1.8691 C   0  0  0  0  0  0  0  0  0  0  0  0
   -8.7339   -4.3032   -1.4087 N   0  0  0  0  0  0  0  0  0  0  0  0
   -7.7396   -4.8489   -0.6713 C   0  0  0  0  0  0  0  0  0  0  0  0
   -6.6388   -4.1744   -0.4048 N   0  0  0  0  0  0  0  0  0  0  0  0
   -2.7185   -0.7876    0.1210 C   0  0  0  0  0  0  0  0  0  0  0  0
   -1.5364   -0.1022    0.4239 C   0  0  0  0  0  0  0  0  0  0  0  0
    1.2861    0.4089   -1.0035 C   0  0  0  0  0  0  0  0  0  0  0  0
    2.4717   -0.2568   -1.1348 C   0  0  0  0  0  0  0  0  0  0  0  0
    4.8337   -1.5188   -1.2838 H   0  0  0  0  0  0  0  0  0  0  0  0
    5.5652   -0.3392    1.4261 H   0  0  0  0  0  0  0  0  0  0  0  0
    6.5424   -2.5153   -1.5383 H   0  0  0  0  0  0  0  0  0  0  0  0
    8.7202   -3.6850   -1.6867 H   0  0  0  0  0  0  0  0  0  0  0  0
    9.8054   -2.1145    2.0183 H   0  0  0  0  0  0  0  0  0  0  0  0
    3.9255    0.6547    1.7364 H   0  0  0  0  0  0  0  0  0  0  0  0
    1.8473    1.8362    1.9922 H   0  0  0  0  0  0  0  0  0  0  0  0
   -1.7787    3.0147    2.1109 H   0  0  0  0  0  0  0  0  0  0  0  0
   -1.6439    5.4168    2.8254 H   0  0  0  0  0  0  0  0  0  0  0  0
    0.0278    6.9080    1.8078 H   0  0  0  0  0  0  0  0  0  0  0  0
    1.5558    6.0163    0.0905 H   0  0  0  0  0  0  0  0  0  0  0  0
    1.4365    3.7202   -0.6013 H   0  0  0  0  0  0  0  0  0  0  0  0
   -2.2912    2.7693   -1.1922 H   0  0  0  0  0  0  0  0  0  0  0  0
   -4.3239    1.5347   -1.6891 H   0  0  0  0  0  0  0  0  0  0  0  0
   -5.7317   -0.4812   -1.5342 H   0  0  0  0  0  0  0  0  0  0  0  0
   -4.4856   -2.7281    0.0619 H   0  0  0  0  0  0  0  0  0  0  0  0
   -7.3993   -1.3498   -2.0039 H   0  0  0  0  0  0  0  0  0  0  0  0
   -9.3889   -2.6426   -2.4539 H   0  0  0  0  0  0  0  0  0  0  0  0
   -7.8673   -5.8805   -0.2923 H   0  0  0  0  0  0  0  0  0  0  0  0
   -2.8027   -1.7820    0.5059 H   0  0  0  0  0  0  0  0  0  0  0  0
   -0.7590   -0.5885    1.0261 H   0  0  0  0  0  0  0  0  0  0  0  0
    0.5673    0.3026   -1.8187 H   0  0  0  0  0  0  0  0  0  0  0  0
    2.6745   -0.8579   -2.0124 H   0  0  0  0  0  0  0  0  0  0  0  0
  1  2  2  0
  2  3  1  0
  3  4  2  0
  4  5  1  0
  5  6  2  0
  6  7  1  0
  7  8  2  0
  1  9  1  0
  9 10  2  0
 10 11  1  0
 11 12  2  0
 12 13  1  0
 13 14  1  0
 14 15  2  0
 15 16  1  0
 16 17  2  0
 17 18  1  0
 18 19  2  0
 13 20  1  0
 20 21  2  0
 21 22  1  0
 22 23  2  0
 23 24  1  0
 24 25  2  0
 25 26  1  0
 26 27  2  0
 27 28  1  0
 28 29  2  0
 29 30  1  0
 30 31  2  0
 23 32  1  0
 32 33  2  0
 12 34  1  0
 34 35  2  0
  8  3  1  0
 35  9  1  0
 19 14  1  0
 33 20  1  0
 31 26  1  0
  1 36  1  0
  2 37  1  0
  4 38  1  0
  5 39  1  0
  7 40  1  0
 10 41  1  0
 11 42  1  0
 15 43  1  0
 16 44  1  0
 17 45  1  0
 18 46  1  0
 19 47  1  0
 21 48  1  0
 22 49  1  0
 24 50  1  0
 25 51  1  0
 27 52  1  0
 28 53  1  0
 30 54  1  0
 32 55  1  0
 33 56  1  0
 34 57  1  0
 35 58  1  0
M  END
