
     RDKit          3D

 36 39  0  0  0  0  0  0  0  0999 V2000
    4.1244    0.0759    1.8770 C   0  0  0  0  0  0  0  0  0  0  0  0
    3.2294   -0.0137    0.6697 C   0  0  0  0  0  0  0  0  0  0  0  0
    3.7993   -0.1376   -0.5874 C   0  0  0  0  0  0  0  0  0  0  0  0
    2.9854   -0.2195   -1.6902 C   0  0  0  0  0  0  0  0  0  0  0  0
    1.6234   -0.1733   -1.4855 C   0  0  0  0  0  0  0  0  0  0  0  0
    1.0950   -0.0488   -0.2125 C   0  0  0  0  0  0  0  0  0  0  0  0
   -0.3566   -0.0100   -0.1107 C   0  0  0  0  0  0  0  0  0  0  0  0
   -1.0008    1.2181   -0.1719 C   0  0  0  0  0  0  0  0  0  0  0  0
   -0.2311    2.3534   -0.3274 C   0  0  0  0  0  0  0  0  0  0  0  0
   -0.8722    3.5937   -0.3899 C   0  0  0  0  0  0  0  0  0  0  0  0
   -2.2587    3.6712   -0.2962 C   0  0  0  0  0  0  0  0  0  0  0  0
   -2.9786    2.5015   -0.1413 C   0  0  0  0  0  0  0  0  0  0  0  0
   -2.3779    1.2597   -0.0758 C   0  0  0  0  0  0  0  0  0  0  0  0
   -3.0900    0.0877    0.0788 C   0  0  0  0  0  0  0  0  0  0  0  0
   -2.4119   -1.1250    0.1362 C   0  0  0  0  0  0  0  0  0  0  0  0
   -3.1113   -2.3236    0.2922 C   0  0  0  0  0  0  0  0  0  0  0  0
   -2.4358   -3.5399    0.3501 C   0  0  0  0  0  0  0  0  0  0  0  0
   -1.0600   -3.5859    0.2544 C   0  0  0  0  0  0  0  0  0  0  0  0
   -0.3496   -2.3979    0.0986 C   0  0  0  0  0  0  0  0  0  0  0  0
   -1.0357   -1.2010    0.0432 C   0  0  0  0  0  0  0  0  0  0  0  0
    1.9023    0.0302    0.8571 N   0  0  0  0  0  0  0  0  0  0  0  0
    3.7978   -0.6666    2.6319 H   0  0  0  0  0  0  0  0  0  0  0  0
    4.0589    1.1014    2.3243 H   0  0  0  0  0  0  0  0  0  0  0  0
    5.1584   -0.1273    1.6057 H   0  0  0  0  0  0  0  0  0  0  0  0
    4.8663   -0.1667   -0.6687 H   0  0  0  0  0  0  0  0  0  0  0  0
    3.4317   -0.3170   -2.6800 H   0  0  0  0  0  0  0  0  0  0  0  0
    0.9982   -0.2403   -2.3777 H   0  0  0  0  0  0  0  0  0  0  0  0
    0.8382    2.2681   -0.3974 H   0  0  0  0  0  0  0  0  0  0  0  0
   -0.2787    4.4890   -0.5116 H   0  0  0  0  0  0  0  0  0  0  0  0
   -2.7705    4.6293   -0.3433 H   0  0  0  0  0  0  0  0  0  0  0  0
   -4.0614    2.5152   -0.0641 H   0  0  0  0  0  0  0  0  0  0  0  0
   -4.1553    0.1314    0.1522 H   0  0  0  0  0  0  0  0  0  0  0  0
   -4.1863   -2.2787    0.3662 H   0  0  0  0  0  0  0  0  0  0  0  0
   -3.0340   -4.4136    0.4702 H   0  0  0  0  0  0  0  0  0  0  0  0
   -0.5657   -4.5456    0.3029 H   0  0  0  0  0  0  0  0  0  0  0  0
    0.7132   -2.3938    0.0212 H   0  0  0  0  0  0  0  0  0  0  0  0
  1  2  1  0
  2  3  2  0
  3  4  1  0
  4  5  2  0
  5  6  1  0
  6  7  1  0
  7  8  1  0
  8  9  2  0
  9 10  1  0
 10 11  2  0
 11 12  1  0
 12 13  2  0
 13 14  1  0
 14 15  2  0
 15 16  1  0
 16 17  2  0
 17 18  1  0
 18 19  2  0
 19 20  1  0
  6 21  2  0
 21  2  1  0
 20  7  2  0
 13  8  1  0
 20 15  1  0
  1 22  1  0
  1 23  1  0
  1 24  1  0
  3 25  1  0
  4 26  1  0
  5 27  1  0
  9 28  1  0
 10 29  1  0
 11 30  1  0
 12 31  1  0
 14 32  1  0
 16 33  1  0
 17 34  1  0
 18 35  1  0
 19 36  1  0
M  END
