
     RDKit          3D

 41 44  0  0  0  0  0  0  0  0999 V2000
    7.2940   -0.5916    0.1915 C   0  0  0  0  0  0  0  0  0  0  0  0
    6.2038    0.1691    0.6654 O   0  0  0  0  0  0  0  0  0  0  0  0
    4.9023   -0.2213    0.2877 C   0  0  0  0  0  0  0  0  0  0  0  0
    4.7009   -1.3164   -0.5227 C   0  0  0  0  0  0  0  0  0  0  0  0
    3.4609   -1.7387   -0.9195 C   0  0  0  0  0  0  0  0  0  0  0  0
    2.3545   -1.0242   -0.4807 C   0  0  0  0  0  0  0  0  0  0  0  0
    2.5057    0.0610    0.3195 C   0  0  0  0  0  0  0  0  0  0  0  0
    3.7955    0.4646    0.7060 C   0  0  0  0  0  0  0  0  0  0  0  0
    1.3985    0.8480    0.8325 C   0  0  0  0  0  0  0  0  0  0  0  0
    0.0269    0.5215    0.3986 C   0  0  0  0  0  0  0  0  0  0  0  0
   -0.1191   -0.6597   -0.4403 C   0  0  0  0  0  0  0  0  0  0  0  0
   -1.3773   -0.9943   -0.7905 C   0  0  0  0  0  0  0  0  0  0  0  0
   -2.5230   -0.2408   -0.3701 C   0  0  0  0  0  0  0  0  0  0  0  0
   -3.4978    0.3786   -0.0165 C   0  0  0  0  0  0  0  0  0  0  0  0
   -4.6666    1.1212    0.3815 C   0  0  0  0  0  0  0  0  0  0  0  0
   -4.9734    1.2351    1.7248 C   0  0  0  0  0  0  0  0  0  0  0  0
   -6.0743    1.9322    2.1350 C   0  0  0  0  0  0  0  0  0  0  0  0
   -6.8902    2.5306    1.1883 C   0  0  0  0  0  0  0  0  0  0  0  0
   -6.5971    2.4258   -0.1573 C   0  0  0  0  0  0  0  0  0  0  0  0
   -5.4919    1.7243   -0.5457 C   0  0  0  0  0  0  0  0  0  0  0  0
   -1.5403   -2.0971   -1.5756 O   0  0  0  0  0  0  0  0  0  0  0  0
   -0.4226   -2.9001   -2.0830 B   0  0  0  0  0  4  0  0  0  0  0  0
   -0.6689   -4.2750   -1.6128 F   0  0  0  0  0  0  0  0  0  0  0  0
   -0.4428   -2.9775   -3.5494 F   0  0  0  0  0  0  0  0  0  0  0  0
    0.8858   -2.4208   -1.6190 O   0  0  0  0  0  3  0  0  0  0  0  0
    1.0055   -1.4271   -0.8931 C   0  0  0  0  0  0  0  0  0  0  0  0
    7.2619   -0.6749   -0.9211 H   0  0  0  0  0  0  0  0  0  0  0  0
    8.2185   -0.0275    0.4518 H   0  0  0  0  0  0  0  0  0  0  0  0
    7.3102   -1.6249    0.5848 H   0  0  0  0  0  0  0  0  0  0  0  0
    5.6004   -1.8567   -0.8499 H   0  0  0  0  0  0  0  0  0  0  0  0
    3.3164   -2.5977   -1.5541 H   0  0  0  0  0  0  0  0  0  0  0  0
    3.9257    1.3413    1.3525 H   0  0  0  0  0  0  0  0  0  0  0  0
    1.6384    1.9359    0.6003 H   0  0  0  0  0  0  0  0  0  0  0  0
    1.4249    0.7486    1.9607 H   0  0  0  0  0  0  0  0  0  0  0  0
   -0.6428    0.4486    1.3171 H   0  0  0  0  0  0  0  0  0  0  0  0
   -0.4372    1.4063   -0.1384 H   0  0  0  0  0  0  0  0  0  0  0  0
   -4.3120    0.7541    2.4314 H   0  0  0  0  0  0  0  0  0  0  0  0
   -6.2708    1.9917    3.2023 H   0  0  0  0  0  0  0  0  0  0  0  0
   -7.7440    3.0677    1.5607 H   0  0  0  0  0  0  0  0  0  0  0  0
   -7.2603    2.9065   -0.8404 H   0  0  0  0  0  0  0  0  0  0  0  0
   -5.2781    1.6537   -1.6162 H   0  0  0  0  0  0  0  0  0  0  0  0
  1  2  1  0
  2  3  1  0
  3  4  2  0
  4  5  1  0
  5  6  2  0
  6  7  1  0
  7  8  2  0
  7  9  1  0
  9 10  1  0
 10 11  1  0
 11 12  2  0
 12 13  1  0
 13 14  3  0
 14 15  1  0
 15 16  2  0
 16 17  1  0
 17 18  2  0
 18 19  1  0
 19 20  2  0
 12 21  1  0
 21 22  1  0
 22 23  1  0
 22 24  1  0
 22 25  1  0
 25 26  2  0
  8  3  1  0
 26 11  1  0
 26  6  1  0
 20 15  1  0
  1 27  1  0
  1 28  1  0
  1 29  1  0
  4 30  1  0
  5 31  1  0
  8 32  1  0
  9 33  1  0
  9 34  1  0
 10 35  1  0
 10 36  1  0
 16 37  1  0
 17 38  1  0
 18 39  1  0
 19 40  1  0
 20 41  1  0
M  CHG  2  22  -1  25   1
M  END
