
     RDKit          3D

 74 77  0  0  0  0  0  0  0  0999 V2000
   12.0060   -0.2730   -1.3656 C   0  0  0  0  0  0  0  0  0  0  0  0
   11.3326    0.3688   -0.2293 N   0  0  0  0  0  0  0  0  0  0  0  0
   12.1608    0.6975    0.9125 C   0  0  0  0  0  0  0  0  0  0  0  0
    9.9604    0.6563   -0.2316 C   0  0  0  0  0  0  0  0  0  0  0  0
    9.4097    1.8457   -0.6828 C   0  0  0  0  0  0  0  0  0  0  0  0
    8.0920    2.1528   -0.6984 C   0  0  0  0  0  0  0  0  0  0  0  0
    7.1604    1.2058   -0.2215 C   0  0  0  0  0  0  0  0  0  0  0  0
    5.8611    1.3680   -0.1782 N   0  0  0  0  0  0  0  0  0  0  0  0
    5.0995    0.4035    0.2912 C   0  0  0  0  0  0  0  0  0  0  0  0
    3.6257    0.3931    0.4214 C   0  0  0  0  0  0  0  0  0  0  0  0
    2.8964    1.4884    0.0253 C   0  0  0  0  0  0  0  0  0  0  0  0
    1.5018    1.4877    0.1439 C   0  0  0  0  0  0  0  0  0  0  0  0
    0.8475    0.3901    0.6585 C   0  0  0  0  0  0  0  0  0  0  0  0
   -0.6297    0.3764    0.7891 C   0  0  0  0  0  0  0  0  0  0  0  0
   -1.3228    1.3363    0.4468 O   0  0  0  0  0  0  0  0  0  0  0  0
   -1.2210   -0.7360    1.3036 O   0  0  0  0  0  0  0  0  0  0  0  0
   -2.5582   -1.0272    1.5277 C   0  0  0  0  0  0  0  0  0  0  0  0
   -3.4517   -1.1297    0.3327 C   0  0  2  0  0  0  0  0  0  0  0  0
   -3.5640    0.0617   -0.4461 N   0  0  0  0  0  0  0  0  0  0  0  0
   -4.4307    1.1386   -0.1897 C   0  0  0  0  0  0  0  0  0  0  0  0
   -5.1857    1.1202    0.7860 O   0  0  0  0  0  0  0  0  0  0  0  0
   -4.4954    2.2732   -0.9996 O   0  0  0  0  0  0  0  0  0  0  0  0
   -5.3506    3.3499   -0.7575 C   0  0  0  0  0  0  0  0  0  0  0  0
   -5.1041    4.3712   -1.8746 C   0  0  0  0  0  0  0  0  0  0  0  0
   -5.0651    4.0669    0.5398 C   0  0  0  0  0  0  0  0  0  0  0  0
   -6.8190    2.9782   -0.8444 C   0  0  0  0  0  0  0  0  0  0  0  0
   -4.7588   -1.7596    0.6803 C   0  0  0  0  0  0  0  0  0  0  0  0
   -5.8122   -1.2776    0.2547 O   0  0  0  0  0  0  0  0  0  0  0  0
   -4.7621   -2.8762    1.4762 O   0  0  0  0  0  0  0  0  0  0  0  0
   -5.9351   -3.5563    1.8694 C   0  0  0  0  0  0  0  0  0  0  0  0
   -6.6298   -4.0245    0.6514 C   0  0  0  0  0  0  0  0  0  0  0  0
   -6.1348   -5.1151   -0.0508 C   0  0  0  0  0  0  0  0  0  0  0  0
   -6.8203   -5.5158   -1.1757 C   0  0  0  0  0  0  0  0  0  0  0  0
   -7.9606   -4.8808   -1.6183 C   0  0  0  0  0  0  0  0  0  0  0  0
   -8.4114   -3.8137   -0.8974 C   0  0  0  0  0  0  0  0  0  0  0  0
   -7.7609   -3.3780    0.2310 C   0  0  0  0  0  0  0  0  0  0  0  0
    1.6053   -0.6922    1.0468 C   0  0  0  0  0  0  0  0  0  0  0  0
    2.9838   -0.7107    0.9375 C   0  0  0  0  0  0  0  0  0  0  0  0
    6.2365   -0.8014    0.6988 S   0  0  0  0  0  0  0  0  0  0  0  0
    7.6631    0.0183    0.2330 C   0  0  0  0  0  0  0  0  0  0  0  0
    9.0371   -0.2671    0.2347 C   0  0  0  0  0  0  0  0  0  0  0  0
   12.8807   -0.8737   -1.0267 H   0  0  0  0  0  0  0  0  0  0  0  0
   11.2536   -0.9823   -1.7821 H   0  0  0  0  0  0  0  0  0  0  0  0
   12.3500    0.4728   -2.1071 H   0  0  0  0  0  0  0  0  0  0  0  0
   12.0515    1.8019    1.0733 H   0  0  0  0  0  0  0  0  0  0  0  0
   11.7754    0.1333    1.7690 H   0  0  0  0  0  0  0  0  0  0  0  0
   13.2121    0.4243    0.7719 H   0  0  0  0  0  0  0  0  0  0  0  0
   10.1363    2.5770   -1.0517 H   0  0  0  0  0  0  0  0  0  0  0  0
    7.7920    3.1142   -1.0755 H   0  0  0  0  0  0  0  0  0  0  0  0
    3.3849    2.3641   -0.3825 H   0  0  0  0  0  0  0  0  0  0  0  0
    0.9133    2.3379   -0.1617 H   0  0  0  0  0  0  0  0  0  0  0  0
   -2.9750   -0.1987    2.1883 H   0  0  0  0  0  0  0  0  0  0  0  0
   -2.6096   -1.9618    2.1464 H   0  0  0  0  0  0  0  0  0  0  0  0
   -2.9311   -1.9228   -0.3369 H   0  0  0  0  0  0  0  0  0  0  0  0
   -2.9614    0.1793   -1.3207 H   0  0  0  0  0  0  0  0  0  0  0  0
   -5.4882    4.0128   -2.8388 H   0  0  0  0  0  0  0  0  0  0  0  0
   -3.9972    4.4344   -1.9711 H   0  0  0  0  0  0  0  0  0  0  0  0
   -5.4563    5.3708   -1.5924 H   0  0  0  0  0  0  0  0  0  0  0  0
   -5.6667    5.0087    0.5257 H   0  0  0  0  0  0  0  0  0  0  0  0
   -4.0015    4.3579    0.5647 H   0  0  0  0  0  0  0  0  0  0  0  0
   -5.3861    3.5050    1.4266 H   0  0  0  0  0  0  0  0  0  0  0  0
   -7.3771    3.9335   -0.9568 H   0  0  0  0  0  0  0  0  0  0  0  0
   -7.1408    2.4510    0.0749 H   0  0  0  0  0  0  0  0  0  0  0  0
   -6.9703    2.3810   -1.7668 H   0  0  0  0  0  0  0  0  0  0  0  0
   -5.7398   -4.3845    2.5562 H   0  0  0  0  0  0  0  0  0  0  0  0
   -6.6063   -2.8475    2.4372 H   0  0  0  0  0  0  0  0  0  0  0  0
   -5.2333   -5.6320    0.2827 H   0  0  0  0  0  0  0  0  0  0  0  0
   -6.4542   -6.3680   -1.7451 H   0  0  0  0  0  0  0  0  0  0  0  0
   -8.4852   -5.2216   -2.5166 H   0  0  0  0  0  0  0  0  0  0  0  0
   -9.3147   -3.2950   -1.2308 H   0  0  0  0  0  0  0  0  0  0  0  0
   -8.1931   -2.5201    0.7470 H   0  0  0  0  0  0  0  0  0  0  0  0
    1.0657   -1.5540    1.4531 H   0  0  0  0  0  0  0  0  0  0  0  0
    3.5452   -1.5796    1.2533 H   0  0  0  0  0  0  0  0  0  0  0  0
    9.3311   -1.2316    0.6137 H   0  0  0  0  0  0  0  0  0  0  0  0
  1  2  1  0
  2  3  1  0
  2  4  1  0
  4  5  2  0
  5  6  1  0
  6  7  2  0
  7  8  1  0
  8  9  2  0
  9 10  1  0
 10 11  2  0
 11 12  1  0
 12 13  2  0
 13 14  1  0
 14 15  2  0
 14 16  1  0
 16 17  1  0
 17 18  1  0
 18 19  1  0
 19 20  1  0
 20 21  2  0
 20 22  1  0
 22 23  1  0
 23 24  1  0
 23 25  1  0
 23 26  1  0
 18 27  1  0
 27 28  2  0
 27 29  1  0
 29 30  1  0
 30 31  1  0
 31 32  2  0
 32 33  1  0
 33 34  2  0
 34 35  1  0
 35 36  2  0
 13 37  1  0
 37 38  2  0
  9 39  1  0
 39 40  1  0
 40 41  2  0
 41  4  1  0
 40  7  1  0
 38 10  1  0
 36 31  1  0
  1 42  1  0
  1 43  1  0
  1 44  1  0
  3 45  1  0
  3 46  1  0
  3 47  1  0
  5 48  1  0
  6 49  1  0
 11 50  1  0
 12 51  1  0
 17 52  1  0
 17 53  1  0
 18 54  1  6
 19 55  1  0
 24 56  1  0
 24 57  1  0
 24 58  1  0
 25 59  1  0
 25 60  1  0
 25 61  1  0
 26 62  1  0
 26 63  1  0
 26 64  1  0
 30 65  1  0
 30 66  1  0
 32 67  1  0
 33 68  1  0
 34 69  1  0
 35 70  1  0
 36 71  1  0
 37 72  1  0
 38 73  1  0
 41 74  1  0
M  END
