
     RDKit          3D

 61 66  0  0  0  0  0  0  0  0999 V2000
    6.0194    3.3795    1.3582 N   0  0  0  0  0  0  0  0  0  0  0  0
    5.6111    2.3090    1.1069 C   0  0  0  0  0  0  0  0  0  0  0  0
    5.0096    0.7013    0.7113 S   0  0  0  0  0  0  0  0  0  0  0  0
    3.2387    0.7305    0.5160 C   0  0  0  0  0  0  0  0  0  0  0  0
    2.4978    1.8168    0.6527 C   0  0  0  0  0  0  0  0  0  0  0  0
    1.0904    1.4326    0.4145 C   0  0  0  0  0  0  0  0  0  0  0  0
   -0.0491    2.0725    0.4102 C   0  0  0  0  0  0  0  0  0  0  0  0
    0.0003    3.5216    0.7018 C   0  0  0  0  0  0  0  0  0  0  0  0
    0.8803    4.3733    0.0776 C   0  0  0  0  0  0  0  0  0  0  0  0
    0.9126    5.7170    0.3982 C   0  0  0  0  0  0  0  0  0  0  0  0
    0.0849    6.2495    1.3337 C   0  0  0  0  0  0  0  0  0  0  0  0
   -0.8070    5.4222    1.9754 C   0  0  0  0  0  0  0  0  0  0  0  0
   -0.8367    4.0624    1.6488 C   0  0  0  0  0  0  0  0  0  0  0  0
   -1.3091    1.4154    0.1223 C   0  0  0  0  0  0  0  0  0  0  0  0
   -2.5831    1.9678    0.0649 C   0  0  0  0  0  0  0  0  0  0  0  0
   -3.4249    0.9253   -0.2624 C   0  0  0  0  0  0  0  0  0  0  0  0
   -5.1917    1.0499   -0.4734 S   0  0  0  0  0  0  0  0  0  0  0  0
   -5.7138    2.7064   -0.2013 C   0  0  0  0  0  0  0  0  0  0  0  0
   -6.0559    3.8144   -0.0000 N   0  0  0  0  0  0  0  0  0  0  0  0
   -2.6534   -0.2070   -0.3920 C   0  0  0  0  0  0  0  0  0  0  0  0
   -3.2002   -1.4781   -0.7345 N   0  0  0  0  0  0  0  0  0  0  0  0
   -3.7151   -2.4100    0.2376 C   0  0  0  0  0  0  0  0  0  0  0  0
   -3.0402   -3.7432    0.0456 C   0  0  0  0  0  0  0  0  0  0  0  0
   -2.6658   -4.0194   -1.2470 O   0  0  0  0  0  0  0  0  0  0  0  0
   -3.4642   -3.3598   -2.1870 C   0  0  0  0  0  0  0  0  0  0  0  0
   -3.2583   -1.8657   -2.1295 C   0  0  0  0  0  0  0  0  0  0  0  0
   -1.3491    0.1059   -0.1525 N   0  0  0  0  0  0  0  0  0  0  0  0
   -0.1142   -0.7731   -0.1686 B   0  0  0  0  0  4  0  0  0  0  0  0
   -0.2056   -1.8316    0.8363 F   0  0  0  0  0  0  0  0  0  0  0  0
    0.0684   -1.4419   -1.4466 F   0  0  0  0  0  0  0  0  0  0  0  0
    1.1352    0.0381    0.1369 N   0  0  0  0  0  4  0  0  0  0  0  0
    2.3748   -0.3928    0.1901 C   0  0  0  0  0  0  0  0  0  0  0  0
    2.8607   -1.7074   -0.0218 N   0  0  0  0  0  0  0  0  0  0  0  0
    2.8785   -2.7066    1.0270 C   0  0  0  0  0  0  0  0  0  0  0  0
    4.1701   -3.4940    0.9230 C   0  0  0  0  0  0  0  0  0  0  0  0
    4.3488   -4.0691   -0.3070 O   0  0  0  0  0  0  0  0  0  0  0  0
    3.5599   -3.5842   -1.3147 C   0  0  0  0  0  0  0  0  0  0  0  0
    3.3669   -2.1011   -1.3200 C   0  0  0  0  0  0  0  0  0  0  0  0
    2.8183    2.8123    0.8975 H   0  0  0  0  0  0  0  0  0  0  0  0
    1.5544    3.9975   -0.6842 H   0  0  0  0  0  0  0  0  0  0  0  0
    1.6158    6.3747   -0.1059 H   0  0  0  0  0  0  0  0  0  0  0  0
    0.1170    7.2947    1.5764 H   0  0  0  0  0  0  0  0  0  0  0  0
   -1.4691    5.8472    2.7225 H   0  0  0  0  0  0  0  0  0  0  0  0
   -1.5298    3.4143    2.1597 H   0  0  0  0  0  0  0  0  0  0  0  0
   -2.8212    2.9994    0.2402 H   0  0  0  0  0  0  0  0  0  0  0  0
   -4.8017   -2.5833   -0.0162 H   0  0  0  0  0  0  0  0  0  0  0  0
   -3.6122   -2.0371    1.2777 H   0  0  0  0  0  0  0  0  0  0  0  0
   -2.0958   -3.7200    0.6577 H   0  0  0  0  0  0  0  0  0  0  0  0
   -3.6318   -4.5671    0.5095 H   0  0  0  0  0  0  0  0  0  0  0  0
   -4.5266   -3.6456   -2.0855 H   0  0  0  0  0  0  0  0  0  0  0  0
   -3.1394   -3.7103   -3.1841 H   0  0  0  0  0  0  0  0  0  0  0  0
   -4.1864   -1.3805   -2.5439 H   0  0  0  0  0  0  0  0  0  0  0  0
   -2.3588   -1.5454   -2.6910 H   0  0  0  0  0  0  0  0  0  0  0  0
    2.8956   -2.1614    1.9901 H   0  0  0  0  0  0  0  0  0  0  0  0
    1.9978   -3.3814    0.9841 H   0  0  0  0  0  0  0  0  0  0  0  0
    4.0660   -4.3331    1.6715 H   0  0  0  0  0  0  0  0  0  0  0  0
    5.0201   -2.8828    1.2784 H   0  0  0  0  0  0  0  0  0  0  0  0
    2.5787   -4.0964   -1.2989 H   0  0  0  0  0  0  0  0  0  0  0  0
    4.0322   -3.8647   -2.3001 H   0  0  0  0  0  0  0  0  0  0  0  0
    2.6475   -1.8525   -2.1108 H   0  0  0  0  0  0  0  0  0  0  0  0
    4.3585   -1.6046   -1.4750 H   0  0  0  0  0  0  0  0  0  0  0  0
  1  2  3  0
  2  3  1  0
  3  4  1  0
  4  5  2  0
  5  6  1  0
  6  7  2  0
  7  8  1  0
  8  9  2  0
  9 10  1  0
 10 11  2  0
 11 12  1  0
 12 13  2  0
  7 14  1  0
 14 15  2  0
 15 16  1  0
 16 17  1  0
 17 18  1  0
 18 19  3  0
 16 20  2  0
 20 21  1  0
 21 22  1  0
 22 23  1  0
 23 24  1  0
 24 25  1  0
 25 26  1  0
 20 27  1  0
 27 28  1  0
 28 29  1  0
 28 30  1  0
 28 31  1  0
 31 32  2  0
 32 33  1  0
 33 34  1  0
 34 35  1  0
 35 36  1  0
 36 37  1  0
 37 38  1  0
 32  4  1  0
 38 33  1  0
 31  6  1  0
 13  8  1  0
 27 14  1  0
 26 21  1  0
  5 39  1  0
  9 40  1  0
 10 41  1  0
 11 42  1  0
 12 43  1  0
 13 44  1  0
 15 45  1  0
 22 46  1  0
 22 47  1  0
 23 48  1  0
 23 49  1  0
 25 50  1  0
 25 51  1  0
 26 52  1  0
 26 53  1  0
 34 54  1  0
 34 55  1  0
 35 56  1  0
 35 57  1  0
 37 58  1  0
 37 59  1  0
 38 60  1  0
 38 61  1  0
M  CHG  2  28  -1  31   1
M  END
