
     RDKit          3D

 62 64  0  0  0  0  0  0  0  0999 V2000
    8.4469    1.5298    0.8661 C   0  0  0  0  0  0  0  0  0  0  0  0
    8.1247    0.5543   -0.2077 C   0  0  0  0  0  0  0  0  0  0  0  0
    7.0930   -0.4566    0.0287 C   0  0  0  0  0  0  0  0  0  0  0  0
    7.0566   -1.2983   -1.3006 C   0  0  0  0  0  0  0  0  0  0  0  0
    7.3747   -1.4759    1.0955 C   0  0  0  0  0  0  0  0  0  0  0  0
    5.6712    0.0211    0.1291 C   0  0  0  0  0  0  0  0  0  0  0  0
    5.0122    0.4549   -1.0087 C   0  0  0  0  0  0  0  0  0  0  0  0
    3.6569    0.7338   -0.9820 C   0  0  0  0  0  0  0  0  0  0  0  0
    2.9246    0.5879    0.1827 C   0  0  0  0  0  0  0  0  0  0  0  0
    1.4666    0.6678    0.1408 C   0  0  0  0  0  0  0  0  0  0  0  0
    0.7497   -0.0586    1.0844 C   0  0  0  0  0  0  0  0  0  0  0  0
   -0.6145   -0.1581    0.9941 C   0  0  0  0  0  0  0  0  0  0  0  0
   -1.2933    0.4757   -0.0680 C   0  0  0  0  0  0  0  0  0  0  0  0
   -2.7458    0.3073   -0.1554 C   0  0  0  0  0  0  0  0  0  0  0  0
   -3.3525   -0.8657    0.3111 C   0  0  0  0  0  0  0  0  0  0  0  0
   -4.7168   -1.0677    0.2601 C   0  0  0  0  0  0  0  0  0  0  0  0
   -5.5240   -0.0855   -0.2700 C   0  0  0  0  0  0  0  0  0  0  0  0
   -7.0206   -0.1573   -0.2960 C   0  0  0  0  0  0  0  0  0  0  0  0
   -7.4929    1.2576   -0.1116 C   0  0  0  0  0  0  0  0  0  0  0  0
   -7.4616   -0.6319   -1.6439 C   0  0  0  0  0  0  0  0  0  0  0  0
   -7.5198   -1.0749    0.7892 C   0  0  0  0  0  0  0  0  0  0  0  0
   -9.0393   -1.1666    0.8480 C   0  0  0  0  0  0  0  0  0  0  0  0
   -4.9061    1.0701   -0.7346 C   0  0  0  0  0  0  0  0  0  0  0  0
   -3.5449    1.2740   -0.6827 C   0  0  0  0  0  0  0  0  0  0  0  0
   -0.6111    1.1877   -0.9904 C   0  0  0  0  0  0  0  0  0  0  0  0
    0.7635    1.2728   -0.8677 C   0  0  0  0  0  0  0  0  0  0  0  0
    3.5667    0.1745    1.3112 C   0  0  0  0  0  0  0  0  0  0  0  0
    4.9404   -0.1105    1.2815 C   0  0  0  0  0  0  0  0  0  0  0  0
    7.7859    1.5728    1.7248 H   0  0  0  0  0  0  0  0  0  0  0  0
    9.5355    1.4234    1.1826 H   0  0  0  0  0  0  0  0  0  0  0  0
    8.4426    2.5590    0.3984 H   0  0  0  0  0  0  0  0  0  0  0  0
    9.0869   -0.0033   -0.4793 H   0  0  0  0  0  0  0  0  0  0  0  0
    7.8724    1.0628   -1.1971 H   0  0  0  0  0  0  0  0  0  0  0  0
    7.2346   -0.6422   -2.1549 H   0  0  0  0  0  0  0  0  0  0  0  0
    7.8110   -2.0822   -1.1902 H   0  0  0  0  0  0  0  0  0  0  0  0
    6.0551   -1.8225   -1.3328 H   0  0  0  0  0  0  0  0  0  0  0  0
    7.6354   -1.0925    2.0695 H   0  0  0  0  0  0  0  0  0  0  0  0
    8.1020   -2.1864    0.6751 H   0  0  0  0  0  0  0  0  0  0  0  0
    6.4011   -2.0366    1.2201 H   0  0  0  0  0  0  0  0  0  0  0  0
    5.6005    0.5690   -1.9193 H   0  0  0  0  0  0  0  0  0  0  0  0
    3.1420    1.0857   -1.8834 H   0  0  0  0  0  0  0  0  0  0  0  0
    1.2033   -0.5647    1.9140 H   0  0  0  0  0  0  0  0  0  0  0  0
   -1.2304   -0.6939    1.6854 H   0  0  0  0  0  0  0  0  0  0  0  0
   -2.7379   -1.6314    0.7221 H   0  0  0  0  0  0  0  0  0  0  0  0
   -5.1493   -1.9784    0.6338 H   0  0  0  0  0  0  0  0  0  0  0  0
   -7.6315    1.7464   -1.1179 H   0  0  0  0  0  0  0  0  0  0  0  0
   -8.4353    1.3587    0.4349 H   0  0  0  0  0  0  0  0  0  0  0  0
   -6.7351    1.8565    0.4730 H   0  0  0  0  0  0  0  0  0  0  0  0
   -8.5619   -0.6480   -1.7923 H   0  0  0  0  0  0  0  0  0  0  0  0
   -7.0212   -1.6408   -1.8520 H   0  0  0  0  0  0  0  0  0  0  0  0
   -7.0019    0.0408   -2.4122 H   0  0  0  0  0  0  0  0  0  0  0  0
   -7.1121   -2.0881    0.6259 H   0  0  0  0  0  0  0  0  0  0  0  0
   -7.1667   -0.7139    1.7614 H   0  0  0  0  0  0  0  0  0  0  0  0
   -9.5314   -1.2029   -0.1291 H   0  0  0  0  0  0  0  0  0  0  0  0
   -9.3971   -0.3371    1.5045 H   0  0  0  0  0  0  0  0  0  0  0  0
   -9.2649   -2.0938    1.3956 H   0  0  0  0  0  0  0  0  0  0  0  0
   -5.5412    1.8135   -1.1532 H   0  0  0  0  0  0  0  0  0  0  0  0
   -3.1182    2.2138   -1.0617 H   0  0  0  0  0  0  0  0  0  0  0  0
   -1.0682    1.6968   -1.8254 H   0  0  0  0  0  0  0  0  0  0  0  0
    1.2861    1.8671   -1.6254 H   0  0  0  0  0  0  0  0  0  0  0  0
    3.0510    0.0701    2.2412 H   0  0  0  0  0  0  0  0  0  0  0  0
    5.4543   -0.4398    2.1792 H   0  0  0  0  0  0  0  0  0  0  0  0
  1  2  1  0
  2  3  1  0
  3  4  1  0
  3  5  1  0
  3  6  1  0
  6  7  2  0
  7  8  1  0
  8  9  2  0
  9 10  1  0
 10 11  2  0
 11 12  1  0
 12 13  2  0
 13 14  1  0
 14 15  2  0
 15 16  1  0
 16 17  2  0
 17 18  1  0
 18 19  1  0
 18 20  1  0
 18 21  1  0
 21 22  1  0
 17 23  1  0
 23 24  2  0
 13 25  1  0
 25 26  2  0
  9 27  1  0
 27 28  2  0
 28  6  1  0
 26 10  1  0
 24 14  1  0
  1 29  1  0
  1 30  1  0
  1 31  1  0
  2 32  1  0
  2 33  1  0
  4 34  1  0
  4 35  1  0
  4 36  1  0
  5 37  1  0
  5 38  1  0
  5 39  1  0
  7 40  1  0
  8 41  1  0
 11 42  1  0
 12 43  1  0
 15 44  1  0
 16 45  1  0
 19 46  1  0
 19 47  1  0
 19 48  1  0
 20 49  1  0
 20 50  1  0
 20 51  1  0
 21 52  1  0
 21 53  1  0
 22 54  1  0
 22 55  1  0
 22 56  1  0
 23 57  1  0
 24 58  1  0
 25 59  1  0
 26 60  1  0
 27 61  1  0
 28 62  1  0
M  END
