
     RDKit          3D

 49 52  0  0  0  0  0  0  0  0999 V2000
   -1.2508   -1.1578    3.6276 C   0  0  0  0  0  0  0  0  0  0  0  0
   -1.0169   -1.0677    2.3008 O   0  0  0  0  0  0  0  0  0  0  0  0
   -1.1921   -0.1331    1.3757 C   0  0  0  0  0  0  0  0  0  0  0  0
   -1.8092    1.1220    1.7454 C   0  0  0  0  0  0  0  0  0  0  0  0
   -1.9716    2.0341    0.7141 C   0  0  0  0  0  0  0  0  0  0  0  0
   -1.5922    1.7879   -0.5757 C   0  0  0  0  0  0  0  0  0  0  0  0
   -0.9690    0.5056   -0.9085 C   0  0  0  0  0  0  0  0  0  0  0  0
   -0.8209   -0.3079    0.0912 C   0  0  0  0  0  0  0  0  0  0  0  0
    0.1765   -1.4684   -0.0773 C   0  0  0  0  0  0  0  0  0  0  0  0
    0.7976   -1.6546   -1.1998 C   0  0  0  0  0  0  0  0  0  0  0  0
    1.8212   -2.7281   -1.4782 C   0  0  0  0  0  0  0  0  0  0  0  0
    2.3001   -2.8751   -2.5317 C   0  0  0  0  0  0  0  0  0  0  0  0
    2.2423   -2.2734   -3.8608 C   0  0  0  0  0  0  0  0  0  0  0  0
    2.1995   -1.7980   -4.8821 N   0  0  0  0  0  0  0  0  0  0  0  0
    3.4231   -3.9821   -2.5897 C   0  0  0  0  0  0  0  0  0  0  0  0
    4.2029   -4.7784   -2.6267 N   0  0  0  0  0  0  0  0  0  0  0  0
    2.3792   -3.3447   -0.2153 C   0  0  0  0  0  0  0  0  0  0  0  0
    2.7029   -4.4636    0.0553 C   0  0  0  0  0  0  0  0  0  0  0  0
    3.4737   -4.9825    1.1856 C   0  0  0  0  0  0  0  0  0  0  0  0
    3.8117   -3.8459    1.9877 C   0  0  0  0  0  0  0  0  0  0  0  0
    3.4963   -2.6492    1.7531 C   0  0  0  0  0  0  0  0  0  0  0  0
    2.7291   -2.1721    0.6268 C   0  0  0  0  0  0  0  0  0  0  0  0
   -1.8305    2.8475   -1.3439 C   0  0  0  0  0  0  0  0  0  0  0  0
   -1.6306    3.1251   -2.7004 C   0  0  0  0  0  0  0  0  0  0  0  0
   -1.9306    4.2638   -3.1666 C   0  0  0  0  0  0  0  0  0  0  0  0
   -2.4719    5.3564   -2.4180 C   0  0  0  0  0  0  0  0  0  0  0  0
   -2.6795    5.0669   -1.0539 C   0  0  0  0  0  0  0  0  0  0  0  0
   -2.3620    3.8162   -0.5210 C   0  0  0  0  0  0  0  0  0  0  0  0
   -2.4608    3.3365    0.7435 N   0  0  0  0  0  0  0  0  0  0  0  0
   -2.9253    4.0492    1.8788 C   0  0  0  0  0  0  0  0  0  0  0  0
   -2.3084   -1.4883    3.8489 H   0  0  0  0  0  0  0  0  0  0  0  0
   -0.5672   -1.9171    4.1331 H   0  0  0  0  0  0  0  0  0  0  0  0
   -1.0749   -0.2322    4.2124 H   0  0  0  0  0  0  0  0  0  0  0  0
   -2.0880    1.3318    2.7414 H   0  0  0  0  0  0  0  0  0  0  0  0
   -0.7077    0.4124   -1.9261 H   0  0  0  0  0  0  0  0  0  0  0  0
    0.3410   -2.1475    0.7228 H   0  0  0  0  0  0  0  0  0  0  0  0
    0.5338   -0.9574   -2.0031 H   0  0  0  0  0  0  0  0  0  0  0  0
    2.4435   -5.3927   -0.5649 H   0  0  0  0  0  0  0  0  0  0  0  0
    3.7317   -5.9036    1.3721 H   0  0  0  0  0  0  0  0  0  0  0  0
    4.4143   -4.1362    2.8959 H   0  0  0  0  0  0  0  0  0  0  0  0
    3.8205   -1.8202    2.4292 H   0  0  0  0  0  0  0  0  0  0  0  0
    2.5027   -1.2179    0.4639 H   0  0  0  0  0  0  0  0  0  0  0  0
   -1.2263    2.2806   -3.2837 H   0  0  0  0  0  0  0  0  0  0  0  0
   -1.7928    4.5617   -4.2586 H   0  0  0  0  0  0  0  0  0  0  0  0
   -2.6880    6.2834   -2.8502 H   0  0  0  0  0  0  0  0  0  0  0  0
   -3.0650    5.8021   -0.3931 H   0  0  0  0  0  0  0  0  0  0  0  0
   -2.1210    4.6673    2.3921 H   0  0  0  0  0  0  0  0  0  0  0  0
   -3.3547    3.3870    2.6108 H   0  0  0  0  0  0  0  0  0  0  0  0
   -3.6358    4.8582    1.5210 H   0  0  0  0  0  0  0  0  0  0  0  0
  1  2  1  0
  2  3  1  0
  3  4  2  0
  4  5  1  0
  5  6  2  0
  6  7  1  0
  7  8  2  0
  8  9  1  0
  9 10  2  0
 10 11  1  0
 11 12  2  0
 12 13  1  0
 13 14  3  0
 12 15  1  0
 15 16  3  0
 11 17  1  0
 17 18  2  0
 18 19  1  0
 19 20  2  0
 20 21  1  0
 21 22  2  0
  6 23  1  0
 23 24  2  0
 24 25  1  0
 25 26  2  0
 26 27  1  0
 27 28  2  0
 28 29  1  0
 29 30  1  0
  8  3  1  0
 22 17  1  0
 28 23  1  0
 29  5  1  0
  1 31  1  0
  1 32  1  0
  1 33  1  0
  4 34  1  0
  7 35  1  0
  9 36  1  0
 10 37  1  0
 18 38  1  0
 19 39  1  0
 20 40  1  0
 21 41  1  0
 22 42  1  0
 24 43  1  0
 25 44  1  0
 26 45  1  0
 27 46  1  0
 30 47  1  0
 30 48  1  0
 30 49  1  0
M  END
