
     RDKit          3D

 59 61  0  0  0  0  0  0  0  0999 V2000
   -7.8676    5.7190   -1.5074 C   0  0  0  0  0  0  0  0  0  0  0  0
   -8.0145    4.4540   -0.9127 O   0  0  0  0  0  0  0  0  0  0  0  0
   -6.9564    3.5941   -0.6974 C   0  0  0  0  0  0  0  0  0  0  0  0
   -5.6622    3.9068   -1.0498 C   0  0  0  0  0  0  0  0  0  0  0  0
   -4.5974    3.0379   -0.8315 C   0  0  0  0  0  0  0  0  0  0  0  0
   -4.7911    1.8161   -0.2485 C   0  0  0  0  0  0  0  0  0  0  0  0
   -3.7466    0.8458    0.0189 C   0  0  0  0  0  0  0  0  0  0  0  0
   -2.5024    1.0798   -0.2905 C   0  0  0  0  0  0  0  0  0  0  0  0
   -1.4408    0.0902   -0.0172 C   0  0  0  0  0  0  0  0  0  0  0  0
   -0.1898    0.3515   -0.3399 C   0  0  0  0  0  0  0  0  0  0  0  0
    0.8909   -0.5778   -0.0969 C   0  0  0  0  0  0  0  0  0  0  0  0
    2.2903   -0.2422   -0.4776 C   0  0  0  0  0  0  0  0  0  0  0  0
    3.2535   -1.1072   -0.2440 C   0  0  0  0  0  0  0  0  0  0  0  0
    4.6406   -0.8848   -0.5714 C   0  0  0  0  0  0  0  0  0  0  0  0
    5.0341    0.2802   -1.1629 C   0  0  0  0  0  0  0  0  0  0  0  0
    6.3684    0.4765   -1.4696 C   0  0  0  0  0  0  0  0  0  0  0  0
    7.3088   -0.4781   -1.1910 C   0  0  0  0  0  0  0  0  0  0  0  0
    8.6262   -0.2405   -1.5137 O   0  0  0  0  0  0  0  0  0  0  0  0
    8.9868    0.9784   -2.1244 C   0  0  0  0  0  0  0  0  0  0  0  0
    6.8966   -1.6596   -0.5890 C   0  0  0  0  0  0  0  0  0  0  0  0
    5.5689   -1.8589   -0.2821 C   0  0  0  0  0  0  0  0  0  0  0  0
    0.6434   -1.6794    0.4414 O   0  0  0  0  0  3  0  0  0  0  0  0
   -0.6890   -2.1359    0.8656 B   0  0  0  0  0  4  0  0  0  0  0  0
   -0.9911   -3.4457    0.1722 O   0  0  0  0  0  0  0  0  0  0  0  0
   -0.2405   -4.5789    0.4125 C   0  0  0  0  0  0  0  0  0  0  0  0
   -0.4672   -5.8831   -0.2162 C   0  0  0  0  0  0  0  0  0  0  0  0
    0.7144   -4.4510    1.2485 O   0  0  0  0  0  0  0  0  0  0  0  0
   -0.7535   -2.4396    2.3306 O   0  0  0  0  0  0  0  0  0  0  0  0
    0.0277   -1.7716    3.2362 C   0  0  0  0  0  0  0  0  0  0  0  0
    0.0018   -2.0352    4.7023 C   0  0  0  0  0  0  0  0  0  0  0  0
    0.8158   -0.8828    2.8190 O   0  0  0  0  0  0  0  0  0  0  0  0
   -1.7271   -1.1284    0.5800 O   0  0  0  0  0  0  0  0  0  0  0  0
   -6.1177    1.5071    0.1075 C   0  0  0  0  0  0  0  0  0  0  0  0
   -7.1667    2.3667   -0.1091 C   0  0  0  0  0  0  0  0  0  0  0  0
   -8.8283    6.2817   -1.4102 H   0  0  0  0  0  0  0  0  0  0  0  0
   -7.6368    5.6879   -2.5787 H   0  0  0  0  0  0  0  0  0  0  0  0
   -7.1153    6.3545   -0.9567 H   0  0  0  0  0  0  0  0  0  0  0  0
   -5.4558    4.8721   -1.5189 H   0  0  0  0  0  0  0  0  0  0  0  0
   -3.5884    3.3334   -1.1296 H   0  0  0  0  0  0  0  0  0  0  0  0
   -3.9863   -0.0961    0.4837 H   0  0  0  0  0  0  0  0  0  0  0  0
   -2.2230    2.0057   -0.7547 H   0  0  0  0  0  0  0  0  0  0  0  0
    0.0120    1.3108   -0.8065 H   0  0  0  0  0  0  0  0  0  0  0  0
    2.5047    0.7041   -0.9405 H   0  0  0  0  0  0  0  0  0  0  0  0
    2.9389   -2.0581    0.2372 H   0  0  0  0  0  0  0  0  0  0  0  0
    4.3610    1.1012   -1.4245 H   0  0  0  0  0  0  0  0  0  0  0  0
    6.6644    1.4168   -1.9437 H   0  0  0  0  0  0  0  0  0  0  0  0
   10.0830    1.0764   -2.2432 H   0  0  0  0  0  0  0  0  0  0  0  0
    8.4665    0.9831   -3.1236 H   0  0  0  0  0  0  0  0  0  0  0  0
    8.6693    1.8559   -1.5165 H   0  0  0  0  0  0  0  0  0  0  0  0
    7.6646   -2.4011   -0.3787 H   0  0  0  0  0  0  0  0  0  0  0  0
    5.2997   -2.8014    0.1885 H   0  0  0  0  0  0  0  0  0  0  0  0
   -0.8796   -5.8105   -1.2526 H   0  0  0  0  0  0  0  0  0  0  0  0
   -1.1513   -6.5397    0.3481 H   0  0  0  0  0  0  0  0  0  0  0  0
    0.5162   -6.4243   -0.2516 H   0  0  0  0  0  0  0  0  0  0  0  0
    1.0062   -1.9242    5.1603 H   0  0  0  0  0  0  0  0  0  0  0  0
   -0.2874   -3.1107    4.8824 H   0  0  0  0  0  0  0  0  0  0  0  0
   -0.7508   -1.4101    5.2310 H   0  0  0  0  0  0  0  0  0  0  0  0
   -6.2630    0.5273    0.5735 H   0  0  0  0  0  0  0  0  0  0  0  0
   -8.1674    2.0421    0.2007 H   0  0  0  0  0  0  0  0  0  0  0  0
  1  2  1  0
  2  3  1  0
  3  4  2  0
  4  5  1  0
  5  6  2  0
  6  7  1  0
  7  8  2  0
  8  9  1  0
  9 10  2  0
 10 11  1  0
 11 12  1  0
 12 13  2  0
 13 14  1  0
 14 15  2  0
 15 16  1  0
 16 17  2  0
 17 18  1  0
 18 19  1  0
 17 20  1  0
 20 21  2  0
 11 22  2  0
 22 23  1  0
 23 24  1  0
 24 25  1  0
 25 26  1  0
 25 27  2  0
 23 28  1  0
 28 29  1  0
 29 30  1  0
 29 31  2  0
 23 32  1  0
  6 33  1  0
 33 34  2  0
 34  3  1  0
 32  9  1  0
 21 14  1  0
  1 35  1  0
  1 36  1  0
  1 37  1  0
  4 38  1  0
  5 39  1  0
  7 40  1  0
  8 41  1  0
 10 42  1  0
 12 43  1  0
 13 44  1  0
 15 45  1  0
 16 46  1  0
 19 47  1  0
 19 48  1  0
 19 49  1  0
 20 50  1  0
 21 51  1  0
 26 52  1  0
 26 53  1  0
 26 54  1  0
 30 55  1  0
 30 56  1  0
 30 57  1  0
 33 58  1  0
 34 59  1  0
M  CHG  2  22   1  23  -1
M  END
