
     RDKit          3D

 71 76  0  0  0  0  0  0  0  0999 V2000
   -3.0648    3.3619    1.5113 C   0  0  0  0  0  0  0  0  0  0  0  0
   -2.0918    2.6574    1.2273 C   0  0  0  0  0  0  0  0  0  0  0  0
   -0.9882    1.8435    0.8898 C   0  0  0  0  0  0  0  0  0  0  0  0
    0.3159    2.2502    1.1163 N   0  0  0  0  0  0  0  0  0  0  0  0
    1.3486    1.3804    0.9283 C   0  0  0  0  0  0  0  0  0  0  0  0
    2.6947    1.9935    0.8524 C   0  0  0  0  0  0  0  0  0  0  0  0
    3.8043    2.4772    0.7981 C   0  0  0  0  0  0  0  0  0  0  0  0
    5.1670    3.0639    0.7069 C   0  0  0  0  0  0  0  0  0  0  0  0
    5.8452    2.6433   -0.4452 C   0  0  0  0  0  0  0  0  0  0  0  0
    7.1122    3.2427   -0.5652 C   0  0  0  0  0  0  0  0  0  0  0  0
    7.6083    4.1247    0.3229 C   0  0  0  0  0  0  0  0  0  0  0  0
    6.9003    4.5277    1.4719 C   0  0  0  0  0  0  0  0  0  0  0  0
    5.6534    3.9413    1.5992 C   0  0  0  0  0  0  0  0  0  0  0  0
    1.2103    0.0991    0.5381 C   0  0  0  0  0  0  0  0  0  0  0  0
    2.3131   -0.7505    0.2911 C   0  0  0  0  0  0  0  0  0  0  0  0
    3.2673   -1.4946    0.0776 C   0  0  0  0  0  0  0  0  0  0  0  0
    4.3890   -2.3773   -0.1682 C   0  0  0  0  0  0  0  0  0  0  0  0
    5.5181   -2.2938    0.5308 C   0  0  0  0  0  0  0  0  0  0  0  0
    6.6499   -3.0784    0.3014 C   0  0  0  0  0  0  0  0  0  0  0  0
    6.5517   -3.9864   -0.7302 C   0  0  0  0  0  0  0  0  0  0  0  0
    5.4073   -4.1013   -1.4649 C   0  0  0  0  0  0  0  0  0  0  0  0
    4.2742   -3.3112   -1.2291 C   0  0  0  0  0  0  0  0  0  0  0  0
   -0.1166   -0.3399    0.3067 C   0  0  0  0  0  0  0  0  0  0  0  0
   -0.3972   -1.7406    0.1975 C   0  0  0  0  0  0  0  0  0  0  0  0
   -0.6396   -2.9315    0.1171 C   0  0  0  0  0  0  0  0  0  0  0  0
   -0.9334   -4.3598    0.0288 C   0  0  0  0  0  0  0  0  0  0  0  0
    0.0850   -5.2672   -0.1174 C   0  0  0  0  0  0  0  0  0  0  0  0
   -0.1912   -6.6485   -0.1108 C   0  0  0  0  0  0  0  0  0  0  0  0
   -1.4783   -7.0368    0.0431 C   0  0  0  0  0  0  0  0  0  0  0  0
   -2.5230   -6.1614    0.1883 C   0  0  0  0  0  0  0  0  0  0  0  0
   -2.2306   -4.7950    0.1794 C   0  0  0  0  0  0  0  0  0  0  0  0
   -1.1503    0.5444    0.4731 C   0  0  0  0  0  0  0  0  0  0  0  0
   -2.3526    0.2961   -0.4238 C   0  0  0  0  0  0  0  0  0  0  0  0
   -3.1900    0.1145   -1.0662 C   0  0  0  0  0  0  0  0  0  0  0  0
   -4.3755   -0.1662   -1.9665 C   0  0  0  0  0  0  0  0  0  0  0  0
   -5.5998    0.3214   -1.7024 C   0  0  0  0  0  0  0  0  0  0  0  0
   -6.6517    0.1103   -2.6026 C   0  0  0  0  0  0  0  0  0  0  0  0
   -6.4631   -0.5929   -3.7626 C   0  0  0  0  0  0  0  0  0  0  0  0
   -5.1969   -1.1052   -4.0366 C   0  0  0  0  0  0  0  0  0  0  0  0
   -4.1831   -0.8857   -3.1388 C   0  0  0  0  0  0  0  0  0  0  0  0
   -4.2036    4.1807    1.8291 C   0  0  0  0  0  0  0  0  0  0  0  0
   -5.4283    4.0970    1.2266 C   0  0  0  0  0  0  0  0  0  0  0  0
   -6.5182    4.8615    1.5678 C   0  0  0  0  0  0  0  0  0  0  0  0
   -6.3556    5.7720    2.5895 C   0  0  0  0  0  0  0  0  0  0  0  0
   -5.1286    5.8940    3.2302 C   0  0  0  0  0  0  0  0  0  0  0  0
   -4.0647    5.1139    2.8624 C   0  0  0  0  0  0  0  0  0  0  0  0
    5.4372    1.9437   -1.1278 H   0  0  0  0  0  0  0  0  0  0  0  0
    7.6533    2.9229   -1.4620 H   0  0  0  0  0  0  0  0  0  0  0  0
    8.6021    4.5909    0.2433 H   0  0  0  0  0  0  0  0  0  0  0  0
    7.2413    5.2155    2.1898 H   0  0  0  0  0  0  0  0  0  0  0  0
    5.0672    4.2357    2.4649 H   0  0  0  0  0  0  0  0  0  0  0  0
    5.6576   -1.5723    1.3580 H   0  0  0  0  0  0  0  0  0  0  0  0
    7.5315   -2.9871    0.8719 H   0  0  0  0  0  0  0  0  0  0  0  0
    7.4275   -4.6274   -0.9251 H   0  0  0  0  0  0  0  0  0  0  0  0
    5.3251   -4.8111   -2.2664 H   0  0  0  0  0  0  0  0  0  0  0  0
    3.3855   -3.3755   -1.7820 H   0  0  0  0  0  0  0  0  0  0  0  0
    1.1086   -4.9373   -0.2245 H   0  0  0  0  0  0  0  0  0  0  0  0
    0.6037   -7.3673   -0.2262 H   0  0  0  0  0  0  0  0  0  0  0  0
   -1.7154   -8.1194    0.0540 H   0  0  0  0  0  0  0  0  0  0  0  0
   -3.5348   -6.5067    0.3004 H   0  0  0  0  0  0  0  0  0  0  0  0
   -3.0259   -4.0989    0.2951 H   0  0  0  0  0  0  0  0  0  0  0  0
   -5.8606    0.8857   -0.8128 H   0  0  0  0  0  0  0  0  0  0  0  0
   -7.6350    0.5143   -2.3571 H   0  0  0  0  0  0  0  0  0  0  0  0
   -7.2513   -0.7605   -4.4743 H   0  0  0  0  0  0  0  0  0  0  0  0
   -5.0513   -1.6760   -4.9458 H   0  0  0  0  0  0  0  0  0  0  0  0
   -3.1883   -1.2780   -3.3608 H   0  0  0  0  0  0  0  0  0  0  0  0
   -5.5002    3.3643    0.4093 H   0  0  0  0  0  0  0  0  0  0  0  0
   -7.4609    4.7731    1.0524 H   0  0  0  0  0  0  0  0  0  0  0  0
   -7.2177    6.3800    2.8545 H   0  0  0  0  0  0  0  0  0  0  0  0
   -5.0840    6.6278    4.0400 H   0  0  0  0  0  0  0  0  0  0  0  0
   -3.1143    5.1754    3.3591 H   0  0  0  0  0  0  0  0  0  0  0  0
  1  2  3  0
  2  3  1  0
  3  4  2  0
  4  5  1  0
  5  6  1  0
  6  7  3  0
  7  8  1  0
  8  9  2  0
  9 10  1  0
 10 11  2  0
 11 12  1  0
 12 13  2  0
  5 14  2  0
 14 15  1  0
 15 16  3  0
 16 17  1  0
 17 18  2  0
 18 19  1  0
 19 20  2  0
 20 21  1  0
 21 22  2  0
 14 23  1  0
 23 24  1  0
 24 25  3  0
 25 26  1  0
 26 27  2  0
 27 28  1  0
 28 29  2  0
 29 30  1  0
 30 31  2  0
 23 32  2  0
 32 33  1  0
 33 34  3  0
 34 35  1  0
 35 36  2  0
 36 37  1  0
 37 38  2  0
 38 39  1  0
 39 40  2  0
  1 41  1  0
 41 42  2  0
 42 43  1  0
 43 44  2  0
 44 45  1  0
 45 46  2  0
 32  3  1  0
 40 35  1  0
 46 41  1  0
 13  8  1  0
 22 17  1  0
 31 26  1  0
  9 47  1  0
 10 48  1  0
 11 49  1  0
 12 50  1  0
 13 51  1  0
 18 52  1  0
 19 53  1  0
 20 54  1  0
 21 55  1  0
 22 56  1  0
 27 57  1  0
 28 58  1  0
 29 59  1  0
 30 60  1  0
 31 61  1  0
 36 62  1  0
 37 63  1  0
 38 64  1  0
 39 65  1  0
 40 66  1  0
 42 67  1  0
 43 68  1  0
 44 69  1  0
 45 70  1  0
 46 71  1  0
M  END
