
     RDKit          3D

 64 68  0  0  0  0  0  0  0  0999 V2000
   -7.0251   -2.7803   -1.2331 C   0  0  0  0  0  0  0  0  0  0  0  0
   -6.2449   -2.1357   -0.1091 C   0  0  0  0  0  0  0  0  0  0  0  0
   -4.9847   -1.5165   -0.7086 C   0  0  0  0  0  0  0  0  0  0  0  0
   -4.1632   -0.8513    0.3932 C   0  0  0  0  0  0  0  0  0  0  0  0
   -2.9513   -0.2524   -0.1056 N   0  0  0  0  0  0  0  0  0  0  0  0
   -3.0936    0.9123   -0.9353 C   0  0  0  0  0  0  0  0  0  0  0  0
   -3.5924    2.1252   -0.1697 C   0  0  0  0  0  0  0  0  0  0  0  0
   -2.6690    2.5202    0.9445 C   0  0  0  0  0  0  0  0  0  0  0  0
   -3.2697    3.7336    1.6262 C   0  0  0  0  0  0  0  0  0  0  0  0
   -1.6697   -0.7795    0.1733 C   0  0  0  0  0  0  0  0  0  0  0  0
   -1.5537   -2.0167    0.7959 C   0  0  0  0  0  0  0  0  0  0  0  0
   -0.2913   -2.4886    1.0709 C   0  0  0  0  0  0  0  0  0  0  0  0
    0.8689   -1.7942    0.7588 C   0  0  0  0  0  0  0  0  0  0  0  0
    2.0901   -2.3104    1.0533 N   0  0  0  0  0  0  0  0  0  0  0  0
    3.1712   -1.5850    0.7226 C   0  0  0  0  0  0  0  0  0  0  0  0
    4.4535   -2.0088    0.9725 C   0  0  0  0  0  0  0  0  0  0  0  0
    4.6059   -3.2318    1.5896 C   0  0  0  0  0  0  0  0  0  0  0  0
    5.8802   -3.6872    1.8555 C   0  0  0  0  0  0  0  0  0  0  0  0
    6.9619   -2.9109    1.4990 C   0  0  0  0  0  0  0  0  0  0  0  0
    6.7899   -1.6925    0.8838 C   0  0  0  0  0  0  0  0  0  0  0  0
    5.5263   -1.2306    0.6147 C   0  0  0  0  0  0  0  0  0  0  0  0
    5.3497    0.0016   -0.0071 C   0  0  0  0  0  0  0  0  0  0  0  0
    6.3650    0.6466   -0.2999 O   0  0  0  0  0  0  0  0  0  0  0  0
    4.0934    0.4914   -0.2892 C   0  0  0  0  0  0  0  0  0  0  0  0
    3.8894    1.7777   -0.9406 C   0  0  0  0  0  0  0  0  0  0  0  0
    3.9877    2.9570   -0.2139 C   0  0  0  0  0  0  0  0  0  0  0  0
    3.7933    4.1756   -0.8184 C   0  0  0  0  0  0  0  0  0  0  0  0
    3.4944    4.2925   -2.1588 C   0  0  0  0  0  0  0  0  0  0  0  0
    3.3974    3.1230   -2.8772 C   0  0  0  0  0  0  0  0  0  0  0  0
    3.5900    1.9009   -2.2825 C   0  0  0  0  0  0  0  0  0  0  0  0
    3.0112   -0.2783    0.0641 C   0  0  0  0  0  0  0  0  0  0  0  0
    1.8195    0.1606   -0.1910 O   0  0  0  0  0  0  0  0  0  0  0  0
    0.7590   -0.5689    0.1422 C   0  0  0  0  0  0  0  0  0  0  0  0
   -0.5120   -0.0721   -0.1451 C   0  0  0  0  0  0  0  0  0  0  0  0
   -7.4527   -1.9285   -1.8355 H   0  0  0  0  0  0  0  0  0  0  0  0
   -6.3831   -3.3518   -1.9223 H   0  0  0  0  0  0  0  0  0  0  0  0
   -7.8970   -3.3479   -0.8649 H   0  0  0  0  0  0  0  0  0  0  0  0
   -6.8539   -1.3462    0.3491 H   0  0  0  0  0  0  0  0  0  0  0  0
   -5.9858   -2.8774    0.6883 H   0  0  0  0  0  0  0  0  0  0  0  0
   -4.3724   -2.2756   -1.2193 H   0  0  0  0  0  0  0  0  0  0  0  0
   -5.3247   -0.7848   -1.4669 H   0  0  0  0  0  0  0  0  0  0  0  0
   -4.0385   -1.4976    1.2733 H   0  0  0  0  0  0  0  0  0  0  0  0
   -4.8350   -0.0073    0.7511 H   0  0  0  0  0  0  0  0  0  0  0  0
   -3.9501    0.6643   -1.6374 H   0  0  0  0  0  0  0  0  0  0  0  0
   -2.2155    1.1790   -1.5384 H   0  0  0  0  0  0  0  0  0  0  0  0
   -4.6161    1.9395    0.1862 H   0  0  0  0  0  0  0  0  0  0  0  0
   -3.6333    2.9594   -0.8955 H   0  0  0  0  0  0  0  0  0  0  0  0
   -2.5519    1.7180    1.7005 H   0  0  0  0  0  0  0  0  0  0  0  0
   -1.6899    2.7468    0.5104 H   0  0  0  0  0  0  0  0  0  0  0  0
   -2.5530    4.2456    2.2710 H   0  0  0  0  0  0  0  0  0  0  0  0
   -3.5730    4.4626    0.8310 H   0  0  0  0  0  0  0  0  0  0  0  0
   -4.1579    3.4705    2.2013 H   0  0  0  0  0  0  0  0  0  0  0  0
   -2.4322   -2.5893    1.0479 H   0  0  0  0  0  0  0  0  0  0  0  0
   -0.2003   -3.4638    1.5626 H   0  0  0  0  0  0  0  0  0  0  0  0
    3.7183   -3.8166    1.8565 H   0  0  0  0  0  0  0  0  0  0  0  0
    5.9690   -4.6499    2.3401 H   0  0  0  0  0  0  0  0  0  0  0  0
    7.9478   -3.2805    1.7136 H   0  0  0  0  0  0  0  0  0  0  0  0
    7.6400   -1.0637    0.5952 H   0  0  0  0  0  0  0  0  0  0  0  0
    4.2245    2.8456    0.8404 H   0  0  0  0  0  0  0  0  0  0  0  0
    3.8695    5.0948   -0.2509 H   0  0  0  0  0  0  0  0  0  0  0  0
    3.3387    5.2406   -2.6549 H   0  0  0  0  0  0  0  0  0  0  0  0
    3.1606    3.2036   -3.9440 H   0  0  0  0  0  0  0  0  0  0  0  0
    3.5154    0.9795   -2.8425 H   0  0  0  0  0  0  0  0  0  0  0  0
   -0.5450    0.9043   -0.6252 H   0  0  0  0  0  0  0  0  0  0  0  0
  1  2  1  0
  2  3  1  0
  3  4  1  0
  4  5  1  0
  5  6  1  0
  6  7  1  0
  7  8  1  0
  8  9  1  0
  5 10  1  0
 10 11  2  0
 11 12  1  0
 12 13  2  0
 13 14  1  0
 14 15  2  0
 15 16  1  0
 16 17  2  0
 17 18  1  0
 18 19  2  0
 19 20  1  0
 20 21  2  0
 21 22  1  0
 22 23  2  0
 22 24  1  0
 24 25  1  0
 25 26  2  0
 26 27  1  0
 27 28  2  0
 28 29  1  0
 29 30  2  0
 24 31  2  0
 31 32  1  0
 32 33  1  0
 33 34  2  0
 34 10  1  0
 33 13  1  0
 31 15  1  0
 21 16  1  0
 30 25  1  0
  1 35  1  0
  1 36  1  0
  1 37  1  0
  2 38  1  0
  2 39  1  0
  3 40  1  0
  3 41  1  0
  4 42  1  0
  4 43  1  0
  6 44  1  0
  6 45  1  0
  7 46  1  0
  7 47  1  0
  8 48  1  0
  8 49  1  0
  9 50  1  0
  9 51  1  0
  9 52  1  0
 11 53  1  0
 12 54  1  0
 17 55  1  0
 18 56  1  0
 19 57  1  0
 20 58  1  0
 26 59  1  0
 27 60  1  0
 28 61  1  0
 29 62  1  0
 30 63  1  0
 34 64  1  0
M  END
