
     RDKit          3D

 43 46  0  0  0  0  0  0  0  0999 V2000
    4.6712   -4.3031   -0.2473 C   0  0  0  0  0  0  0  0  0  0  0  0
    3.5668   -3.9170   -1.0551 O   0  0  0  0  0  0  0  0  0  0  0  0
    2.7738   -2.8267   -0.6334 C   0  0  0  0  0  0  0  0  0  0  0  0
    1.7275   -2.8561    0.2486 C   0  0  0  0  0  0  0  0  0  0  0  0
    1.1048   -1.6793    0.5090 C   0  0  0  0  0  0  0  0  0  0  0  0
    1.5732   -0.5677   -0.1311 C   0  0  0  0  0  0  0  0  0  0  0  0
    1.2342    0.8588   -0.0270 C   0  0  0  0  0  0  0  0  0  0  0  0
    2.2991    1.7255   -0.1337 N   0  0  0  0  0  0  0  0  0  0  0  0
    2.2124    3.0184    0.1158 C   0  0  0  0  0  0  0  0  0  0  0  0
    3.3117    3.8756    0.0009 C   0  0  0  0  0  0  0  0  0  0  0  0
    3.1185    5.2049    0.2848 C   0  0  0  0  0  0  0  0  0  0  0  0
    1.8951    5.7142    0.6733 C   0  0  0  0  0  0  0  0  0  0  0  0
    0.8130    4.8790    0.7879 C   0  0  0  0  0  0  0  0  0  0  0  0
    0.9994    3.5205    0.5005 C   0  0  0  0  0  0  0  0  0  0  0  0
   -0.0565    2.7302    0.6148 N   0  0  0  0  0  0  0  0  0  0  0  0
    0.0612    1.3798    0.3436 C   0  0  0  0  0  0  0  0  0  0  0  0
   -1.1836    0.6806    0.2800 C   0  0  0  0  0  0  0  0  0  0  0  0
   -1.5069   -0.3709   -0.4342 C   0  0  0  0  0  0  0  0  0  0  0  0
   -2.8291   -0.9474   -0.3595 N   0  0  0  0  0  0  0  0  0  0  0  0
   -3.8897   -0.5356   -1.2595 C   0  0  0  0  0  0  0  0  0  0  0  0
   -4.9885   -1.5200   -1.0149 C   0  0  0  0  0  0  0  0  0  0  0  0
   -4.8333   -1.8217    0.4718 C   0  0  0  0  0  0  0  0  0  0  0  0
   -3.3122   -1.9631    0.5526 C   0  0  0  0  0  0  0  0  0  0  0  0
    2.8582   -1.1842   -1.0682 S   0  0  0  0  0  0  0  0  0  0  0  0
    4.4578   -4.0514    0.8097 H   0  0  0  0  0  0  0  0  0  0  0  0
    5.5463   -3.7104   -0.5673 H   0  0  0  0  0  0  0  0  0  0  0  0
    4.8124   -5.3950   -0.3951 H   0  0  0  0  0  0  0  0  0  0  0  0
    1.3839   -3.8068    0.7459 H   0  0  0  0  0  0  0  0  0  0  0  0
    0.2536   -1.6344    1.2466 H   0  0  0  0  0  0  0  0  0  0  0  0
    4.2357    3.4412   -0.3016 H   0  0  0  0  0  0  0  0  0  0  0  0
    3.9496    5.8763    0.2014 H   0  0  0  0  0  0  0  0  0  0  0  0
    1.7296    6.7614    0.9006 H   0  0  0  0  0  0  0  0  0  0  0  0
   -0.1613    5.2647    1.0932 H   0  0  0  0  0  0  0  0  0  0  0  0
   -1.9965    1.0566    0.9260 H   0  0  0  0  0  0  0  0  0  0  0  0
   -0.7799   -0.7747   -1.1147 H   0  0  0  0  0  0  0  0  0  0  0  0
   -4.2018    0.4900   -0.9034 H   0  0  0  0  0  0  0  0  0  0  0  0
   -3.5400   -0.5128   -2.3112 H   0  0  0  0  0  0  0  0  0  0  0  0
   -4.7419   -2.4659   -1.5472 H   0  0  0  0  0  0  0  0  0  0  0  0
   -5.9994   -1.1410   -1.2416 H   0  0  0  0  0  0  0  0  0  0  0  0
   -5.3525   -2.7492    0.7645 H   0  0  0  0  0  0  0  0  0  0  0  0
   -5.1905   -0.9196    1.0121 H   0  0  0  0  0  0  0  0  0  0  0  0
   -2.9303   -1.8589    1.5683 H   0  0  0  0  0  0  0  0  0  0  0  0
   -3.0949   -2.9644    0.0941 H   0  0  0  0  0  0  0  0  0  0  0  0
  1  2  1  0
  2  3  1  0
  3  4  2  0
  4  5  1  0
  5  6  2  0
  6  7  1  0
  7  8  2  0
  8  9  1  0
  9 10  2  0
 10 11  1  0
 11 12  2  0
 12 13  1  0
 13 14  2  0
 14 15  1  0
 15 16  2  0
 16 17  1  0
 17 18  2  0
 18 19  1  0
 19 20  1  0
 20 21  1  0
 21 22  1  0
 22 23  1  0
  6 24  1  0
 24  3  1  0
 16  7  1  0
 23 19  1  0
 14  9  1  0
  1 25  1  0
  1 26  1  0
  1 27  1  0
  4 28  1  0
  5 29  1  0
 10 30  1  0
 11 31  1  0
 12 32  1  0
 13 33  1  0
 17 34  1  0
 18 35  1  0
 20 36  1  0
 20 37  1  0
 21 38  1  0
 21 39  1  0
 22 40  1  0
 22 41  1  0
 23 42  1  0
 23 43  1  0
M  END
