
     RDKit          3D

 34 36  0  0  0  0  0  0  0  0999 V2000
    1.8398    3.3485    2.0762 N   0  0  0  0  0  0  0  0  0  0  0  0
    1.2210    2.5908    1.4635 C   0  0  0  0  0  0  0  0  0  0  0  0
    0.4612    1.6253    0.6950 C   0  0  0  0  0  0  0  0  0  0  0  0
   -0.8081    1.7135    0.2634 N   0  0  0  0  0  0  0  0  0  0  0  0
   -1.1007    0.5994   -0.4049 N   0  0  0  0  0  0  0  0  0  0  0  0
   -2.3323    0.2669   -1.0339 C   0  0  0  0  0  0  0  0  0  0  0  0
   -2.4780    0.3464   -2.4237 C   0  0  0  0  0  0  0  0  0  0  0  0
   -3.6859    0.0164   -2.9955 C   0  0  0  0  0  0  0  0  0  0  0  0
   -4.7328   -0.3868   -2.1939 C   0  0  0  0  0  0  0  0  0  0  0  0
   -4.6118   -0.4724   -0.8230 C   0  0  0  0  0  0  0  0  0  0  0  0
   -3.3977   -0.1398   -0.2584 C   0  0  0  0  0  0  0  0  0  0  0  0
   -3.2128   -0.2132    1.2012 C   0  0  0  0  0  0  0  0  0  0  0  0
   -2.1911   -1.1171    1.4537 F   0  0  0  0  0  0  0  0  0  0  0  0
   -4.3497   -0.7348    1.8270 F   0  0  0  0  0  0  0  0  0  0  0  0
   -2.8453    0.9879    1.7665 F   0  0  0  0  0  0  0  0  0  0  0  0
   -0.0377   -0.1860   -0.4002 N   0  0  0  0  0  0  0  0  0  0  0  0
    0.9807    0.4111    0.2809 C   0  0  0  0  0  0  0  0  0  0  0  0
    2.2851   -0.1018    0.5126 N   0  0  0  0  0  0  0  0  0  0  0  0
    2.8935   -0.3585    1.8155 C   0  0  0  0  0  0  0  0  0  0  0  0
    4.2044   -1.0469    1.5136 C   0  0  0  0  0  0  0  0  0  0  0  0
    4.5631   -0.3979    0.1707 C   0  0  0  0  0  0  0  0  0  0  0  0
    3.2243   -0.4532   -0.5346 C   0  0  0  0  0  0  0  0  0  0  0  0
   -1.6525    0.6616   -3.0276 H   0  0  0  0  0  0  0  0  0  0  0  0
   -3.7809    0.0826   -4.0609 H   0  0  0  0  0  0  0  0  0  0  0  0
   -5.6685   -0.6358   -2.7095 H   0  0  0  0  0  0  0  0  0  0  0  0
   -5.4454   -0.7904   -0.2161 H   0  0  0  0  0  0  0  0  0  0  0  0
    2.2506   -1.0152    2.4260 H   0  0  0  0  0  0  0  0  0  0  0  0
    3.1261    0.5893    2.3370 H   0  0  0  0  0  0  0  0  0  0  0  0
    4.0650   -2.1376    1.2832 H   0  0  0  0  0  0  0  0  0  0  0  0
    4.9745   -0.8848    2.2713 H   0  0  0  0  0  0  0  0  0  0  0  0
    4.8084    0.6707    0.2973 H   0  0  0  0  0  0  0  0  0  0  0  0
    5.2997   -0.9784   -0.3854 H   0  0  0  0  0  0  0  0  0  0  0  0
    2.9910   -1.5183   -0.8082 H   0  0  0  0  0  0  0  0  0  0  0  0
    3.1429    0.2285   -1.3788 H   0  0  0  0  0  0  0  0  0  0  0  0
  1  2  3  0
  2  3  1  0
  3  4  2  0
  4  5  1  0
  5  6  1  0
  6  7  2  0
  7  8  1  0
  8  9  2  0
  9 10  1  0
 10 11  2  0
 11 12  1  0
 12 13  1  0
 12 14  1  0
 12 15  1  0
  5 16  1  0
 16 17  2  0
 17 18  1  0
 18 19  1  0
 19 20  1  0
 20 21  1  0
 21 22  1  0
 17  3  1  0
 22 18  1  0
 11  6  1  0
  7 23  1  0
  8 24  1  0
  9 25  1  0
 10 26  1  0
 19 27  1  0
 19 28  1  0
 20 29  1  0
 20 30  1  0
 21 31  1  0
 21 32  1  0
 22 33  1  0
 22 34  1  0
M  END
