
     RDKit          3D

 60 63  0  0  0  0  0  0  0  0999 V2000
   -1.2880   -1.3759    1.9538 C   0  0  0  0  0  0  0  0  0  0  0  0
   -0.6273   -0.5938    0.8807 C   0  0  0  0  0  0  0  0  0  0  0  0
    0.7524   -0.5896    0.8673 C   0  0  0  0  0  0  0  0  0  0  0  0
    1.4029    0.1285   -0.1064 C   0  0  0  0  0  0  0  0  0  0  0  0
    2.8659    0.0924   -0.1149 C   0  0  0  0  0  0  0  0  0  0  0  0
    3.5378   -1.0919    0.0884 C   0  0  0  0  0  0  0  0  0  0  0  0
    4.9369   -1.1222    0.0477 C   0  0  0  0  0  0  0  0  0  0  0  0
    5.6845    0.0108   -0.1911 C   0  0  0  0  0  0  0  0  0  0  0  0
    7.1486   -0.0736   -0.2367 C   0  0  0  0  0  0  0  0  0  0  0  0
    7.5370   -0.0465   -1.7136 C   0  0  0  0  0  0  0  0  0  0  0  0
    7.6321   -1.3837    0.3347 C   0  0  0  0  0  0  0  0  0  0  0  0
    7.8512    1.0470    0.4762 C   0  0  0  0  0  0  0  0  0  0  0  0
    4.9866    1.1903   -0.3917 C   0  0  0  0  0  0  0  0  0  0  0  0
    3.6102    1.2445   -0.3567 C   0  0  0  0  0  0  0  0  0  0  0  0
    0.7172    0.8663   -1.0963 C   0  0  0  0  0  0  0  0  0  0  0  0
    1.3094    1.5807   -2.0564 N   0  0  0  0  0  0  0  0  0  0  0  0
    0.0233    2.2301   -2.9201 S   0  0  0  0  0  0  0  0  0  0  0  0
   -1.2364    1.5687   -2.0288 N   0  0  0  0  0  0  0  0  0  0  0  0
   -0.6211    0.8578   -1.0790 C   0  0  0  0  0  0  0  0  0  0  0  0
   -1.2947    0.1192   -0.0798 C   0  0  0  0  0  0  0  0  0  0  0  0
   -2.7583    0.0866   -0.0734 C   0  0  0  0  0  0  0  0  0  0  0  0
   -3.4234    1.0145    0.6917 C   0  0  0  0  0  0  0  0  0  0  0  0
   -4.8115    1.0386    0.6893 C   0  0  0  0  0  0  0  0  0  0  0  0
   -5.4746    0.1290   -0.0825 C   0  0  0  0  0  0  0  0  0  0  0  0
   -6.9497    0.1142   -0.1742 C   0  0  0  0  0  0  0  0  0  0  0  0
   -7.3931    0.1936   -1.6336 C   0  0  0  0  0  0  0  0  0  0  0  0
   -7.5917    1.2672    0.5381 C   0  0  0  0  0  0  0  0  0  0  0  0
   -7.4722   -1.1792    0.3914 C   0  0  0  0  0  0  0  0  0  0  0  0
   -4.8000   -0.8125   -0.8549 C   0  0  0  0  0  0  0  0  0  0  0  0
   -3.4349   -0.8480   -0.8627 C   0  0  0  0  0  0  0  0  0  0  0  0
   -1.2441   -2.4507    1.7027 H   0  0  0  0  0  0  0  0  0  0  0  0
   -2.3233   -0.9903    2.1024 H   0  0  0  0  0  0  0  0  0  0  0  0
   -0.7784   -1.2486    2.9314 H   0  0  0  0  0  0  0  0  0  0  0  0
    1.2942   -1.1495    1.6206 H   0  0  0  0  0  0  0  0  0  0  0  0
    2.9732   -2.0096    0.2780 H   0  0  0  0  0  0  0  0  0  0  0  0
    5.4063   -2.0759    0.2083 H   0  0  0  0  0  0  0  0  0  0  0  0
    8.6238    0.0059   -1.8077 H   0  0  0  0  0  0  0  0  0  0  0  0
    7.0559    0.8119   -2.2354 H   0  0  0  0  0  0  0  0  0  0  0  0
    7.1206   -0.9629   -2.1764 H   0  0  0  0  0  0  0  0  0  0  0  0
    7.3821   -2.1718   -0.4236 H   0  0  0  0  0  0  0  0  0  0  0  0
    8.7601   -1.3257    0.3900 H   0  0  0  0  0  0  0  0  0  0  0  0
    7.2351   -1.6043    1.3332 H   0  0  0  0  0  0  0  0  0  0  0  0
    8.8556    1.1536   -0.0321 H   0  0  0  0  0  0  0  0  0  0  0  0
    7.3517    2.0243    0.3904 H   0  0  0  0  0  0  0  0  0  0  0  0
    8.0668    0.7854    1.5206 H   0  0  0  0  0  0  0  0  0  0  0  0
    5.5613    2.0827   -0.5804 H   0  0  0  0  0  0  0  0  0  0  0  0
    3.0427    2.1672   -0.5145 H   0  0  0  0  0  0  0  0  0  0  0  0
   -2.9045    1.7525    1.3148 H   0  0  0  0  0  0  0  0  0  0  0  0
   -5.3227    1.7800    1.3064 H   0  0  0  0  0  0  0  0  0  0  0  0
   -8.3938    0.6283   -1.6496 H   0  0  0  0  0  0  0  0  0  0  0  0
   -6.6216    0.7872   -2.1634 H   0  0  0  0  0  0  0  0  0  0  0  0
   -7.3934   -0.8484   -2.0096 H   0  0  0  0  0  0  0  0  0  0  0  0
   -7.4449    1.2351    1.6177 H   0  0  0  0  0  0  0  0  0  0  0  0
   -8.7001    1.1874    0.3345 H   0  0  0  0  0  0  0  0  0  0  0  0
   -7.3168    2.2376    0.0754 H   0  0  0  0  0  0  0  0  0  0  0  0
   -6.9315   -1.4668    1.2908 H   0  0  0  0  0  0  0  0  0  0  0  0
   -8.5632   -1.0070    0.5989 H   0  0  0  0  0  0  0  0  0  0  0  0
   -7.4258   -1.9512   -0.4083 H   0  0  0  0  0  0  0  0  0  0  0  0
   -5.3563   -1.5145   -1.4464 H   0  0  0  0  0  0  0  0  0  0  0  0
   -2.8282   -1.5249   -1.4202 H   0  0  0  0  0  0  0  0  0  0  0  0
  1  2  1  0
  2  3  1  0
  3  4  2  0
  4  5  1  0
  5  6  2  0
  6  7  1  0
  7  8  2  0
  8  9  1  0
  9 10  1  0
  9 11  1  0
  9 12  1  0
  8 13  1  0
 13 14  2  0
  4 15  1  0
 15 16  2  0
 16 17  1  0
 17 18  1  0
 18 19  2  0
 19 20  1  0
 20 21  1  0
 21 22  2  0
 22 23  1  0
 23 24  2  0
 24 25  1  0
 25 26  1  0
 25 27  1  0
 25 28  1  0
 24 29  1  0
 29 30  2  0
 20  2  2  0
 30 21  1  0
 14  5  1  0
 19 15  1  0
  1 31  1  0
  1 32  1  0
  1 33  1  0
  3 34  1  0
  6 35  1  0
  7 36  1  0
 10 37  1  0
 10 38  1  0
 10 39  1  0
 11 40  1  0
 11 41  1  0
 11 42  1  0
 12 43  1  0
 12 44  1  0
 12 45  1  0
 13 46  1  0
 14 47  1  0
 22 48  1  0
 23 49  1  0
 26 50  1  0
 26 51  1  0
 26 52  1  0
 27 53  1  0
 27 54  1  0
 27 55  1  0
 28 56  1  0
 28 57  1  0
 28 58  1  0
 29 59  1  0
 30 60  1  0
M  END
