
     RDKit          3D

 60 66  0  0  0  0  0  0  0  0999 V2000
   -0.0708    2.4249    0.6494 O   0  0  0  0  0  0  0  0  0  0  0  0
   -0.5967    1.2000    0.3002 C   0  0  0  0  0  0  0  0  0  0  0  0
   -2.0062    1.0935    0.2552 C   0  0  0  0  0  0  0  0  0  0  0  0
   -2.5892   -0.0992   -0.0833 C   0  0  0  0  0  0  0  0  0  0  0  0
   -4.0001   -0.2523    0.0010 N   0  0  0  0  0  0  0  0  0  0  0  0
   -4.8010   -0.0143    1.1493 C   0  0  0  0  0  0  0  0  0  0  0  0
   -5.7663   -0.9912    1.4505 C   0  0  0  0  0  0  0  0  0  0  0  0
   -6.6110   -0.8884    2.5218 C   0  0  0  0  0  0  0  0  0  0  0  0
   -6.5248    0.2099    3.3477 C   0  0  0  0  0  0  0  0  0  0  0  0
   -5.5917    1.1847    3.0822 C   0  0  0  0  0  0  0  0  0  0  0  0
   -4.7378    1.0386    1.9634 C   0  0  0  0  0  0  0  0  0  0  0  0
   -4.8242   -0.5359   -1.1709 C   0  0  0  0  0  0  0  0  0  0  0  0
   -4.5099   -1.4551   -2.1050 C   0  0  0  0  0  0  0  0  0  0  0  0
   -5.3918   -1.6142   -3.1936 C   0  0  0  0  0  0  0  0  0  0  0  0
   -6.5267   -0.8494   -3.2815 C   0  0  0  0  0  0  0  0  0  0  0  0
   -6.8651    0.0951   -2.3372 C   0  0  0  0  0  0  0  0  0  0  0  0
   -5.9951    0.2376   -1.2824 C   0  0  0  0  0  0  0  0  0  0  0  0
   -1.7634   -1.1829   -0.3770 C   0  0  0  0  0  0  0  0  0  0  0  0
   -0.3936   -1.0842   -0.3370 C   0  0  0  0  0  0  0  0  0  0  0  0
    0.1867    0.1120    0.0034 C   0  0  0  0  0  0  0  0  0  0  0  0
    1.6593    0.1675    0.0333 C   0  0  0  0  0  0  0  0  0  0  0  0
    2.4381    1.2223    0.3358 N   0  0  0  0  0  0  0  0  0  0  0  0
    3.7263    0.8648    0.2484 C   0  0  0  0  0  0  0  0  0  0  0  0
    4.9191    1.5375    0.4481 C   0  0  0  0  0  0  0  0  0  0  0  0
    4.8913    2.8706    0.8204 C   0  0  0  0  0  0  0  0  0  0  0  0
    6.0549    3.5696    1.0272 C   0  0  0  0  0  0  0  0  0  0  0  0
    7.2570    2.9245    0.8586 C   0  0  0  0  0  0  0  0  0  0  0  0
    7.3271    1.5984    0.4885 C   0  0  0  0  0  0  0  0  0  0  0  0
    6.1630    0.8990    0.2817 C   0  0  0  0  0  0  0  0  0  0  0  0
    6.1476   -0.4326   -0.0907 C   0  0  0  0  0  0  0  0  0  0  0  0
    7.3474   -1.0604   -0.2545 C   0  0  0  0  0  0  0  0  0  0  0  0
    7.3267   -2.4124   -0.6327 C   0  0  0  0  0  0  0  0  0  0  0  0
    6.1728   -3.1157   -0.8405 C   0  0  0  0  0  0  0  0  0  0  0  0
    4.9857   -2.4392   -0.6630 C   0  0  0  0  0  0  0  0  0  0  0  0
    4.9586   -1.1224   -0.2951 C   0  0  0  0  0  0  0  0  0  0  0  0
    3.7582   -0.4599   -0.1216 C   0  0  0  0  0  0  0  0  0  0  0  0
    2.4769   -0.8724   -0.2494 N   0  0  0  0  0  0  0  0  0  0  0  0
    0.8402    2.7422    0.7483 H   0  0  0  0  0  0  0  0  0  0  0  0
   -2.5457    2.0054    0.4560 H   0  0  0  0  0  0  0  0  0  0  0  0
   -5.8273   -1.8428    0.8032 H   0  0  0  0  0  0  0  0  0  0  0  0
   -7.3608   -1.6335    2.7673 H   0  0  0  0  0  0  0  0  0  0  0  0
   -7.1995    0.2974    4.2082 H   0  0  0  0  0  0  0  0  0  0  0  0
   -5.5095    2.0519    3.7178 H   0  0  0  0  0  0  0  0  0  0  0  0
   -4.0580    1.8389    1.8367 H   0  0  0  0  0  0  0  0  0  0  0  0
   -3.6290   -2.0666   -2.0698 H   0  0  0  0  0  0  0  0  0  0  0  0
   -5.1134   -2.3547   -3.9210 H   0  0  0  0  0  0  0  0  0  0  0  0
   -7.1841   -0.9964   -4.1316 H   0  0  0  0  0  0  0  0  0  0  0  0
   -7.7695    0.6781   -2.4432 H   0  0  0  0  0  0  0  0  0  0  0  0
   -6.2470    0.9762   -0.5311 H   0  0  0  0  0  0  0  0  0  0  0  0
   -2.2121   -2.1332   -0.5931 H   0  0  0  0  0  0  0  0  0  0  0  0
    0.2169   -1.9691   -0.5795 H   0  0  0  0  0  0  0  0  0  0  0  0
    3.9329    3.3693    0.9505 H   0  0  0  0  0  0  0  0  0  0  0  0
    6.0099    4.6237    1.3214 H   0  0  0  0  0  0  0  0  0  0  0  0
    8.1651    3.5020    1.0289 H   0  0  0  0  0  0  0  0  0  0  0  0
    8.2562    1.1430    0.3703 H   0  0  0  0  0  0  0  0  0  0  0  0
    8.3088   -0.6590   -0.1330 H   0  0  0  0  0  0  0  0  0  0  0  0
    8.2589   -2.9429   -0.7719 H   0  0  0  0  0  0  0  0  0  0  0  0
    6.1683   -4.1692   -1.1351 H   0  0  0  0  0  0  0  0  0  0  0  0
    4.0657   -2.9931   -0.8268 H   0  0  0  0  0  0  0  0  0  0  0  0
    2.2021   -1.8359   -0.5214 H   0  0  0  0  0  0  0  0  0  0  0  0
  1  2  1  0
  2  3  2  0
  3  4  1  0
  4  5  1  0
  5  6  1  0
  6  7  2  0
  7  8  1  0
  8  9  2  0
  9 10  1  0
 10 11  2  0
  5 12  1  0
 12 13  2  0
 13 14  1  0
 14 15  2  0
 15 16  1  0
 16 17  2  0
  4 18  2  0
 18 19  1  0
 19 20  2  0
 20 21  1  0
 21 22  2  0
 22 23  1  0
 23 24  2  0
 24 25  1  0
 25 26  2  0
 26 27  1  0
 27 28  2  0
 28 29  1  0
 29 30  2  0
 30 31  1  0
 31 32  2  0
 32 33  1  0
 33 34  2  0
 34 35  1  0
 35 36  2  0
 36 37  1  0
 20  2  1  0
 37 21  1  0
 11  6  1  0
 17 12  1  0
 36 23  1  0
 29 24  1  0
 35 30  1  0
  1 38  1  0
  3 39  1  0
  7 40  1  0
  8 41  1  0
  9 42  1  0
 10 43  1  0
 11 44  1  0
 13 45  1  0
 14 46  1  0
 15 47  1  0
 16 48  1  0
 17 49  1  0
 18 50  1  0
 19 51  1  0
 25 52  1  0
 26 53  1  0
 27 54  1  0
 28 55  1  0
 31 56  1  0
 32 57  1  0
 33 58  1  0
 34 59  1  0
 37 60  1  0
M  END
