
     RDKit          3D

 90 93  0  0  0  0  0  0  0  0999 V2000
  -12.1268    0.9186    0.1757 C   0  0  0  0  0  0  0  0  0  0  0  0
  -11.4165    0.1215   -0.8466 C   0  0  0  0  0  0  0  0  0  0  0  0
   -9.9889   -0.1310   -0.6166 C   0  0  0  0  0  0  0  0  0  0  0  0
   -9.6158   -0.8998    0.5777 C   0  0  0  0  0  0  0  0  0  0  0  0
   -9.8675   -0.2801    1.9027 C   0  0  0  0  0  0  0  0  0  0  0  0
   -9.0584    0.9861    2.0228 C   0  0  0  0  0  0  0  0  0  0  0  0
   -7.6935    0.6736    1.9078 O   0  0  0  0  0  0  0  0  0  0  0  0
   -6.9450   -0.1136    2.7429 C   0  0  0  0  0  0  0  0  0  0  0  0
   -7.4797   -0.6381    3.7443 O   0  0  0  0  0  0  0  0  0  0  0  0
   -5.5344   -0.3337    2.4589 C   0  0  0  0  0  0  0  0  0  0  0  0
   -4.9109    0.1905    1.4197 C   0  0  0  0  0  0  0  0  0  0  0  0
   -3.4749   -0.0890    1.2112 C   0  0  0  0  0  0  0  0  0  0  0  0
   -2.7073    0.3520    0.2313 C   0  0  0  0  0  0  0  0  0  0  0  0
   -1.3518   -0.1593    0.3980 C   0  0  0  0  0  0  0  0  0  0  0  0
   -0.2162   -0.0264   -0.2810 C   0  0  0  0  0  0  0  0  0  0  0  0
   -0.1565    0.7853   -1.4865 C   0  0  0  0  0  0  0  0  0  0  0  0
    0.2125    0.3102   -2.7222 C   0  0  0  0  0  0  0  0  0  0  0  0
    0.4953   -1.1438   -2.8612 C   0  0  0  0  0  0  0  0  0  0  0  0
    0.3058    1.1201   -3.8492 C   0  0  0  0  0  0  0  0  0  0  0  0
    0.0244    2.4507   -3.7595 C   0  0  0  0  0  0  0  0  0  0  0  0
    0.1093    3.3558   -4.9334 C   0  0  0  0  0  0  0  0  0  0  0  0
   -0.3469    2.9562   -2.5428 C   0  0  0  0  0  0  0  0  0  0  0  0
   -0.4373    2.1406   -1.4201 C   0  0  0  0  0  0  0  0  0  0  0  0
   -0.8246    2.7616   -0.1190 C   0  0  0  0  0  0  0  0  0  0  0  0
    0.9960   -0.6785    0.1810 C   0  0  0  0  0  0  0  0  0  0  0  0
    2.3060   -0.6867   -0.3194 C   0  0  0  0  0  0  0  0  0  0  0  0
    3.1093   -1.4489    0.4988 C   0  0  0  0  0  0  0  0  0  0  0  0
    4.5416   -1.7341    0.3607 C   0  0  0  0  0  0  0  0  0  0  0  0
    5.2282   -1.2362   -0.6392 C   0  0  0  0  0  0  0  0  0  0  0  0
    6.6849   -1.5239   -0.7838 C   0  0  0  0  0  0  0  0  0  0  0  0
    7.3201   -1.0360   -1.7454 O   0  0  0  0  0  0  0  0  0  0  0  0
    7.3343   -2.3039    0.1055 O   0  0  0  0  0  0  0  0  0  0  0  0
    8.6315   -2.7033    0.2291 C   0  0  0  0  0  0  0  0  0  0  0  0
    9.5911   -1.6729    0.7003 C   0  0  0  0  0  0  0  0  0  0  0  0
    9.7085   -0.4704   -0.1371 C   0  0  0  0  0  0  0  0  0  0  0  0
   10.7653    0.4986    0.4257 C   0  0  0  0  0  0  0  0  0  0  0  0
   12.1280   -0.0997    0.4988 C   0  0  0  0  0  0  0  0  0  0  0  0
   13.0530    0.9855    1.0637 C   0  0  0  0  0  0  0  0  0  0  0  0
    2.2826   -1.9078    1.5050 C   0  0  0  0  0  0  0  0  0  0  0  0
    1.0283   -1.4233    1.2760 N   0  0  0  0  0  0  0  0  0  0  0  0
   -0.2036   -1.6621    2.1121 B   0  0  0  0  0  4  0  0  0  0  0  0
   -0.4581   -3.1015    2.1091 F   0  0  0  0  0  0  0  0  0  0  0  0
    0.0387   -1.2080    3.4880 F   0  0  0  0  0  0  0  0  0  0  0  0
   -1.4173   -0.9485    1.5867 N   0  0  0  0  0  4  0  0  0  0  0  0
   -2.6357   -0.9130    2.0604 C   0  0  0  0  0  0  0  0  0  0  0  0
  -12.9025    1.5446   -0.3906 H   0  0  0  0  0  0  0  0  0  0  0  0
  -12.7507    0.2601    0.8473 H   0  0  0  0  0  0  0  0  0  0  0  0
  -11.5095    1.6469    0.6949 H   0  0  0  0  0  0  0  0  0  0  0  0
  -12.0052   -0.8468   -0.9734 H   0  0  0  0  0  0  0  0  0  0  0  0
  -11.5604    0.6432   -1.8551 H   0  0  0  0  0  0  0  0  0  0  0  0
   -9.4163    0.8653   -0.5976 H   0  0  0  0  0  0  0  0  0  0  0  0
   -9.5588   -0.6131   -1.5651 H   0  0  0  0  0  0  0  0  0  0  0  0
  -10.1479   -1.9178    0.5793 H   0  0  0  0  0  0  0  0  0  0  0  0
   -8.5189   -1.2084    0.4784 H   0  0  0  0  0  0  0  0  0  0  0  0
   -9.4457   -0.9787    2.7085 H   0  0  0  0  0  0  0  0  0  0  0  0
  -10.9107   -0.0780    2.1240 H   0  0  0  0  0  0  0  0  0  0  0  0
   -9.2426    1.4212    3.0485 H   0  0  0  0  0  0  0  0  0  0  0  0
   -9.2653    1.7384    1.2385 H   0  0  0  0  0  0  0  0  0  0  0  0
   -4.9532   -0.9562    3.1229 H   0  0  0  0  0  0  0  0  0  0  0  0
   -5.4688    0.8096    0.7511 H   0  0  0  0  0  0  0  0  0  0  0  0
   -3.0358    0.9941   -0.5784 H   0  0  0  0  0  0  0  0  0  0  0  0
    1.5751   -1.2573   -3.0484 H   0  0  0  0  0  0  0  0  0  0  0  0
   -0.0297   -1.5039   -3.7899 H   0  0  0  0  0  0  0  0  0  0  0  0
    0.2069   -1.7189   -1.9800 H   0  0  0  0  0  0  0  0  0  0  0  0
    0.5997    0.7256   -4.8167 H   0  0  0  0  0  0  0  0  0  0  0  0
    0.3585    2.8058   -5.8593 H   0  0  0  0  0  0  0  0  0  0  0  0
    0.8933    4.1306   -4.6964 H   0  0  0  0  0  0  0  0  0  0  0  0
   -0.8547    3.8712   -5.1265 H   0  0  0  0  0  0  0  0  0  0  0  0
   -0.5782    3.9966   -2.4220 H   0  0  0  0  0  0  0  0  0  0  0  0
   -0.5198    2.1524    0.7523 H   0  0  0  0  0  0  0  0  0  0  0  0
   -0.2428    3.7249   -0.0022 H   0  0  0  0  0  0  0  0  0  0  0  0
   -1.8820    3.0912   -0.0996 H   0  0  0  0  0  0  0  0  0  0  0  0
    2.6491   -0.1714   -1.2125 H   0  0  0  0  0  0  0  0  0  0  0  0
    5.0510   -2.3555    1.0769 H   0  0  0  0  0  0  0  0  0  0  0  0
    4.7726   -0.6161   -1.3740 H   0  0  0  0  0  0  0  0  0  0  0  0
    8.9804   -3.0606   -0.8076 H   0  0  0  0  0  0  0  0  0  0  0  0
    8.6801   -3.6226    0.9033 H   0  0  0  0  0  0  0  0  0  0  0  0
   10.5986   -2.1716    0.8100 H   0  0  0  0  0  0  0  0  0  0  0  0
    9.2984   -1.4026    1.7759 H   0  0  0  0  0  0  0  0  0  0  0  0
    8.7618    0.1239   -0.0093 H   0  0  0  0  0  0  0  0  0  0  0  0
    9.8955   -0.6066   -1.2011 H   0  0  0  0  0  0  0  0  0  0  0  0
   10.7918    1.3426   -0.2622 H   0  0  0  0  0  0  0  0  0  0  0  0
   10.4393    0.7695    1.4469 H   0  0  0  0  0  0  0  0  0  0  0  0
   12.1987   -1.0191    1.1353 H   0  0  0  0  0  0  0  0  0  0  0  0
   12.5478   -0.3764   -0.4820 H   0  0  0  0  0  0  0  0  0  0  0  0
   13.4956    1.5858    0.2435 H   0  0  0  0  0  0  0  0  0  0  0  0
   13.8673    0.5266    1.6611 H   0  0  0  0  0  0  0  0  0  0  0  0
   12.4818    1.6424    1.7522 H   0  0  0  0  0  0  0  0  0  0  0  0
    2.6085   -2.5413    2.3191 H   0  0  0  0  0  0  0  0  0  0  0  0
   -2.9794   -1.4234    2.9590 H   0  0  0  0  0  0  0  0  0  0  0  0
  1  2  1  0
  2  3  1  0
  3  4  1  0
  4  5  1  0
  5  6  1  0
  6  7  1  0
  7  8  1  0
  8  9  2  0
  8 10  1  0
 10 11  2  0
 11 12  1  0
 12 13  2  0
 13 14  1  0
 14 15  2  0
 15 16  1  0
 16 17  2  0
 17 18  1  0
 17 19  1  0
 19 20  2  0
 20 21  1  0
 20 22  1  0
 22 23  2  0
 23 24  1  0
 15 25  1  0
 25 26  2  0
 26 27  1  0
 27 28  1  0
 28 29  2  0
 29 30  1  0
 30 31  2  0
 30 32  1  0
 32 33  1  0
 33 34  1  0
 34 35  1  0
 35 36  1  0
 36 37  1  0
 37 38  1  0
 27 39  2  0
 39 40  1  0
 40 41  1  0
 41 42  1  0
 41 43  1  0
 41 44  1  0
 44 45  2  0
 45 12  1  0
 44 14  1  0
 23 16  1  0
 40 25  1  0
  1 46  1  0
  1 47  1  0
  1 48  1  0
  2 49  1  0
  2 50  1  0
  3 51  1  0
  3 52  1  0
  4 53  1  0
  4 54  1  0
  5 55  1  0
  5 56  1  0
  6 57  1  0
  6 58  1  0
 10 59  1  0
 11 60  1  0
 13 61  1  0
 18 62  1  0
 18 63  1  0
 18 64  1  0
 19 65  1  0
 21 66  1  0
 21 67  1  0
 21 68  1  0
 22 69  1  0
 24 70  1  0
 24 71  1  0
 24 72  1  0
 26 73  1  0
 28 74  1  0
 29 75  1  0
 33 76  1  0
 33 77  1  0
 34 78  1  0
 34 79  1  0
 35 80  1  0
 35 81  1  0
 36 82  1  0
 36 83  1  0
 37 84  1  0
 37 85  1  0
 38 86  1  0
 38 87  1  0
 38 88  1  0
 39 89  1  0
 45 90  1  0
M  CHG  2  41  -1  44   1
M  END
