
     RDKit          3D

 87 92  0  0  0  0  0  0  0  0999 V2000
  -11.3201    0.1703    1.2419 C   0  0  0  0  0  0  0  0  0  0  0  0
  -10.2019    0.7629    0.3971 C   0  0  0  0  0  0  0  0  0  0  0  0
  -10.0998    0.1106   -0.9292 C   0  0  0  0  0  0  0  0  0  0  0  0
   -9.0580    0.5622   -1.8760 C   0  0  0  0  0  0  0  0  0  0  0  0
   -7.6579    0.4454   -1.4251 C   0  0  0  0  0  0  0  0  0  0  0  0
   -6.9915    1.4326   -0.6906 C   0  0  0  0  0  0  0  0  0  0  0  0
   -7.6094    2.6329   -0.4155 C   0  0  0  0  0  0  0  0  0  0  0  0
   -6.9792    3.6350    0.2852 C   0  0  0  0  0  0  0  0  0  0  0  0
   -5.6964    3.4421    0.7262 C   0  0  0  0  0  0  0  0  0  0  0  0
   -5.0783    2.2609    0.4578 C   0  0  0  0  0  0  0  0  0  0  0  0
   -5.6907    1.2458   -0.2421 C   0  0  0  0  0  0  0  0  0  0  0  0
   -5.0039    0.0772   -0.5060 C   0  0  0  0  0  0  0  0  0  0  0  0
   -3.6413   -0.1144   -0.0342 C   0  0  0  0  0  0  0  0  0  0  0  0
   -2.6235    0.6011   -0.6296 C   0  0  0  0  0  0  0  0  0  0  0  0
   -1.3142    0.4468   -0.2433 C   0  0  0  0  0  0  0  0  0  0  0  0
   -0.9921   -0.4391    0.7605 C   0  0  0  0  0  0  0  0  0  0  0  0
    0.4033   -0.6124    1.1822 C   0  0  0  0  0  0  0  0  0  0  0  0
    1.4369    0.1175    0.6913 N   0  0  0  0  0  0  0  0  0  0  0  0
    2.5450   -0.3111    1.2995 C   0  0  0  0  0  0  0  0  0  0  0  0
    3.8607    0.0413    1.2143 C   0  0  0  0  0  0  0  0  0  0  0  0
    4.8072   -0.5902    1.9803 C   0  0  0  0  0  0  0  0  0  0  0  0
    6.2084   -0.1654    1.8802 C   0  0  0  0  0  0  0  0  0  0  0  0
    6.9008   -0.8953    0.7212 C   0  0  0  0  0  0  0  0  0  0  0  0
    8.2738   -0.3800    0.7419 N   0  0  0  0  0  0  0  0  0  0  0  0
    8.7784    0.5145   -0.2136 C   0  0  0  0  0  0  0  0  0  0  0  0
    8.0030    0.8863   -1.1364 O   0  0  0  0  0  0  0  0  0  0  0  0
   10.0523    1.0222   -0.2259 O   0  0  0  0  0  0  0  0  0  0  0  0
   10.5944    1.9142   -1.1426 C   0  0  0  0  0  0  0  0  0  0  0  0
    9.7973    3.1979   -1.1168 C   0  0  0  0  0  0  0  0  0  0  0  0
   12.0189    2.3109   -0.7605 C   0  0  0  0  0  0  0  0  0  0  0  0
   10.6507    1.4217   -2.5609 C   0  0  0  0  0  0  0  0  0  0  0  0
    6.8593   -2.3472    0.8617 C   0  0  0  0  0  0  0  0  0  0  0  0
    7.8795   -3.0785    1.0023 O   0  0  0  0  0  0  0  0  0  0  0  0
    5.6486   -3.0013    0.8446 O   0  0  0  0  0  0  0  0  0  0  0  0
    5.5604   -4.4154    0.9792 C   0  0  0  0  0  0  0  0  0  0  0  0
    4.4627   -1.5930    2.8534 C   0  0  0  0  0  0  0  0  0  0  0  0
    3.1150   -1.9561    2.9433 C   0  0  0  0  0  0  0  0  0  0  0  0
    2.1613   -1.3261    2.1777 C   0  0  0  0  0  0  0  0  0  0  0  0
    0.8579   -1.4576    2.0589 O   0  0  0  0  0  0  0  0  0  0  0  0
   -1.9927   -1.1568    1.3622 C   0  0  0  0  0  0  0  0  0  0  0  0
   -3.3261   -0.9970    0.9661 C   0  0  0  0  0  0  0  0  0  0  0  0
   -5.6440   -0.8856   -1.2195 C   0  0  0  0  0  0  0  0  0  0  0  0
   -4.9316   -2.0599   -1.4658 C   0  0  0  0  0  0  0  0  0  0  0  0
   -5.4977   -3.0931   -2.1706 C   0  0  0  0  0  0  0  0  0  0  0  0
   -6.7713   -2.9556   -2.6285 C   0  0  0  0  0  0  0  0  0  0  0  0
   -7.4682   -1.7727   -2.3724 C   0  0  0  0  0  0  0  0  0  0  0  0
   -6.9361   -0.7183   -1.6724 C   0  0  0  0  0  0  0  0  0  0  0  0
  -10.8954   -0.1016    2.2358 H   0  0  0  0  0  0  0  0  0  0  0  0
  -12.1379    0.8999    1.3125 H   0  0  0  0  0  0  0  0  0  0  0  0
  -11.6687   -0.7484    0.6949 H   0  0  0  0  0  0  0  0  0  0  0  0
   -9.2376    0.7482    0.9704 H   0  0  0  0  0  0  0  0  0  0  0  0
  -10.4633    1.8318    0.2620 H   0  0  0  0  0  0  0  0  0  0  0  0
  -11.0990    0.2169   -1.4617 H   0  0  0  0  0  0  0  0  0  0  0  0
  -10.0572   -1.0023   -0.7421 H   0  0  0  0  0  0  0  0  0  0  0  0
   -9.2506    0.0181   -2.8531 H   0  0  0  0  0  0  0  0  0  0  0  0
   -9.2483    1.6377   -2.2063 H   0  0  0  0  0  0  0  0  0  0  0  0
   -8.6334    2.8095   -0.7811 H   0  0  0  0  0  0  0  0  0  0  0  0
   -7.5067    4.5548    0.4729 H   0  0  0  0  0  0  0  0  0  0  0  0
   -5.1653    4.2182    1.2874 H   0  0  0  0  0  0  0  0  0  0  0  0
   -4.0582    2.0670    0.7905 H   0  0  0  0  0  0  0  0  0  0  0  0
   -2.8894    1.2970   -1.4205 H   0  0  0  0  0  0  0  0  0  0  0  0
   -0.5423    1.0168   -0.7235 H   0  0  0  0  0  0  0  0  0  0  0  0
    4.1277    0.8477    0.5114 H   0  0  0  0  0  0  0  0  0  0  0  0
    6.7174   -0.4290    2.8457 H   0  0  0  0  0  0  0  0  0  0  0  0
    6.3420    0.9258    1.7855 H   0  0  0  0  0  0  0  0  0  0  0  0
    6.4332   -0.5434   -0.2205 H   0  0  0  0  0  0  0  0  0  0  0  0
    8.8874   -0.7102    1.5137 H   0  0  0  0  0  0  0  0  0  0  0  0
    9.4703    3.4692   -2.1425 H   0  0  0  0  0  0  0  0  0  0  0  0
    8.8781    3.0176   -0.5256 H   0  0  0  0  0  0  0  0  0  0  0  0
   10.3455    4.0354   -0.6302 H   0  0  0  0  0  0  0  0  0  0  0  0
   11.9405    2.7863    0.2601 H   0  0  0  0  0  0  0  0  0  0  0  0
   12.6441    1.4272   -0.6446 H   0  0  0  0  0  0  0  0  0  0  0  0
   12.3881    3.0705   -1.4742 H   0  0  0  0  0  0  0  0  0  0  0  0
    9.6658    1.4797   -3.0879 H   0  0  0  0  0  0  0  0  0  0  0  0
   11.2970    2.1671   -3.1142 H   0  0  0  0  0  0  0  0  0  0  0  0
   11.1432    0.4516   -2.6983 H   0  0  0  0  0  0  0  0  0  0  0  0
    4.6255   -4.7331    1.4785 H   0  0  0  0  0  0  0  0  0  0  0  0
    5.5862   -4.8806   -0.0474 H   0  0  0  0  0  0  0  0  0  0  0  0
    6.4591   -4.8197    1.4989 H   0  0  0  0  0  0  0  0  0  0  0  0
    5.1635   -2.1285    3.4819 H   0  0  0  0  0  0  0  0  0  0  0  0
    2.8451   -2.7468    3.6334 H   0  0  0  0  0  0  0  0  0  0  0  0
   -1.7407   -1.8529    2.1517 H   0  0  0  0  0  0  0  0  0  0  0  0
   -4.1188   -1.5528    1.4307 H   0  0  0  0  0  0  0  0  0  0  0  0
   -3.9274   -2.1638   -1.1049 H   0  0  0  0  0  0  0  0  0  0  0  0
   -4.9672   -4.0210   -2.3779 H   0  0  0  0  0  0  0  0  0  0  0  0
   -7.2485   -3.7612   -3.1904 H   0  0  0  0  0  0  0  0  0  0  0  0
   -8.4534   -1.7286   -2.7460 H   0  0  0  0  0  0  0  0  0  0  0  0
  1  2  1  0
  2  3  1  0
  3  4  1  0
  4  5  1  0
  5  6  2  0
  6  7  1  0
  7  8  2  0
  8  9  1  0
  9 10  2  0
 10 11  1  0
 11 12  2  0
 12 13  1  0
 13 14  2  0
 14 15  1  0
 15 16  2  0
 16 17  1  0
 17 18  2  0
 18 19  1  0
 19 20  2  0
 20 21  1  0
 21 22  1  0
 22 23  1  0
 23 24  1  0
 24 25  1  0
 25 26  2  0
 25 27  1  0
 27 28  1  0
 28 29  1  0
 28 30  1  0
 28 31  1  0
 23 32  1  0
 32 33  2  0
 32 34  1  0
 34 35  1  0
 21 36  2  0
 36 37  1  0
 37 38  2  0
 38 39  1  0
 16 40  1  0
 40 41  2  0
 12 42  1  0
 42 43  2  0
 43 44  1  0
 44 45  2  0
 45 46  1  0
 46 47  2  0
 47  5  1  0
 11  6  1  0
 41 13  1  0
 47 42  1  0
 39 17  1  0
 38 19  1  0
  1 48  1  0
  1 49  1  0
  1 50  1  0
  2 51  1  0
  2 52  1  0
  3 53  1  0
  3 54  1  0
  4 55  1  0
  4 56  1  0
  7 57  1  0
  8 58  1  0
  9 59  1  0
 10 60  1  0
 14 61  1  0
 15 62  1  0
 20 63  1  0
 22 64  1  0
 22 65  1  0
 23 66  1  0
 24 67  1  0
 29 68  1  0
 29 69  1  0
 29 70  1  0
 30 71  1  0
 30 72  1  0
 30 73  1  0
 31 74  1  0
 31 75  1  0
 31 76  1  0
 35 77  1  0
 35 78  1  0
 35 79  1  0
 36 80  1  0
 37 81  1  0
 40 82  1  0
 41 83  1  0
 43 84  1  0
 44 85  1  0
 45 86  1  0
 46 87  1  0
M  END
