
     RDKit          3D

 64 70  0  0  0  0  0  0  0  0999 V2000
  -12.9998    0.6080   -1.1105 C   0  0  0  0  0  0  0  0  0  0  0  0
  -11.7021    0.3995   -0.4165 C   0  0  0  0  0  0  0  0  0  0  0  0
  -11.6632    0.0331    0.9354 C   0  0  0  0  0  0  0  0  0  0  0  0
  -10.4526   -0.1549    1.5582 C   0  0  0  0  0  0  0  0  0  0  0  0
   -9.2529    0.0012    0.9103 C   0  0  0  0  0  0  0  0  0  0  0  0
   -7.9548   -0.1040    1.2223 N   0  0  0  0  0  0  0  0  0  0  0  0
   -7.1677    0.1696    0.1646 C   0  0  0  0  0  0  0  0  0  0  0  0
   -5.6962    0.1427    0.1773 C   0  0  0  0  0  0  0  0  0  0  0  0
   -4.9925   -0.1759    1.3160 C   0  0  0  0  0  0  0  0  0  0  0  0
   -3.5957   -0.1930    1.2958 C   0  0  0  0  0  0  0  0  0  0  0  0
   -2.8738    0.1023    0.1584 C   0  0  0  0  0  0  0  0  0  0  0  0
   -1.4154    0.0802    0.1520 C   0  0  0  0  0  0  0  0  0  0  0  0
   -0.6640    0.9103   -0.6578 C   0  0  0  0  0  0  0  0  0  0  0  0
    0.7224    0.8738   -0.6504 C   0  0  0  0  0  0  0  0  0  0  0  0
    1.4045    0.0022    0.1706 C   0  0  0  0  0  0  0  0  0  0  0  0
    2.8769   -0.0439    0.1843 C   0  0  0  0  0  0  0  0  0  0  0  0
    3.5902   -0.0913    1.3623 C   0  0  0  0  0  0  0  0  0  0  0  0
    4.9783   -0.1336    1.3462 C   0  0  0  0  0  0  0  0  0  0  0  0
    5.6917   -0.1301    0.1688 C   0  0  0  0  0  0  0  0  0  0  0  0
    7.1569   -0.1749    0.1860 C   0  0  0  0  0  0  0  0  0  0  0  0
    7.9972   -0.1785   -0.8589 N   0  0  0  0  0  0  0  0  0  0  0  0
    9.2734   -0.2259   -0.4310 C   0  0  0  0  0  0  0  0  0  0  0  0
   10.5181   -0.2505   -1.0469 C   0  0  0  0  0  0  0  0  0  0  0  0
   11.7000   -0.3007   -0.3420 C   0  0  0  0  0  0  0  0  0  0  0  0
   13.0279   -0.3259   -1.0412 C   0  0  0  0  0  0  0  0  0  0  0  0
   11.6130   -0.3270    1.0419 C   0  0  0  0  0  0  0  0  0  0  0  0
   10.3960   -0.3039    1.6862 C   0  0  0  0  0  0  0  0  0  0  0  0
    9.2386   -0.2534    0.9365 C   0  0  0  0  0  0  0  0  0  0  0  0
    7.9426   -0.2213    1.2739 N   0  0  0  0  0  0  0  0  0  0  0  0
    4.9802   -0.0827   -1.0100 C   0  0  0  0  0  0  0  0  0  0  0  0
    3.5981   -0.0406   -0.9919 C   0  0  0  0  0  0  0  0  0  0  0  0
    0.6604   -0.8278    0.9802 C   0  0  0  0  0  0  0  0  0  0  0  0
    1.3280   -1.6835    1.7864 F   0  0  0  0  0  0  0  0  0  0  0  0
   -0.7168   -0.7860    0.9676 C   0  0  0  0  0  0  0  0  0  0  0  0
   -3.5934    0.4208   -0.9789 C   0  0  0  0  0  0  0  0  0  0  0  0
   -4.9795    0.4384   -0.9615 C   0  0  0  0  0  0  0  0  0  0  0  0
   -7.9821    0.4573   -0.8503 N   0  0  0  0  0  0  0  0  0  0  0  0
   -9.2613    0.3665   -0.4390 C   0  0  0  0  0  0  0  0  0  0  0  0
  -10.4910    0.5524   -1.0530 C   0  0  0  0  0  0  0  0  0  0  0  0
  -13.4214    1.5965   -0.8500 H   0  0  0  0  0  0  0  0  0  0  0  0
  -13.6877   -0.2324   -0.8700 H   0  0  0  0  0  0  0  0  0  0  0  0
  -12.7623    0.5759   -2.2135 H   0  0  0  0  0  0  0  0  0  0  0  0
  -12.6167   -0.0874    1.4369 H   0  0  0  0  0  0  0  0  0  0  0  0
  -10.4443   -0.4354    2.5939 H   0  0  0  0  0  0  0  0  0  0  0  0
   -7.5915   -0.3632    2.1586 H   0  0  0  0  0  0  0  0  0  0  0  0
   -5.5509   -0.4074    2.2071 H   0  0  0  0  0  0  0  0  0  0  0  0
   -3.0557   -0.4455    2.1993 H   0  0  0  0  0  0  0  0  0  0  0  0
   -1.2099    1.5940   -1.3013 H   0  0  0  0  0  0  0  0  0  0  0  0
    1.2988    1.5344   -1.2942 H   0  0  0  0  0  0  0  0  0  0  0  0
    3.0636   -0.0953    2.2921 H   0  0  0  0  0  0  0  0  0  0  0  0
    5.5517   -0.1712    2.2717 H   0  0  0  0  0  0  0  0  0  0  0  0
   10.5567   -0.2292   -2.1212 H   0  0  0  0  0  0  0  0  0  0  0  0
   13.7965   -0.4921   -0.2654 H   0  0  0  0  0  0  0  0  0  0  0  0
   12.9980   -1.2079   -1.7395 H   0  0  0  0  0  0  0  0  0  0  0  0
   13.1697    0.6098   -1.6108 H   0  0  0  0  0  0  0  0  0  0  0  0
   12.5224   -0.3665    1.6262 H   0  0  0  0  0  0  0  0  0  0  0  0
   10.3583   -0.3251    2.7593 H   0  0  0  0  0  0  0  0  0  0  0  0
    7.5864   -0.2310    2.2518 H   0  0  0  0  0  0  0  0  0  0  0  0
    5.5142   -0.0786   -1.9624 H   0  0  0  0  0  0  0  0  0  0  0  0
    3.0074   -0.0026   -1.9126 H   0  0  0  0  0  0  0  0  0  0  0  0
   -1.2658   -1.4649    1.6286 H   0  0  0  0  0  0  0  0  0  0  0  0
   -3.0260    0.6551   -1.8813 H   0  0  0  0  0  0  0  0  0  0  0  0
   -5.5453    0.6873   -1.8496 H   0  0  0  0  0  0  0  0  0  0  0  0
  -10.4856    0.8338   -2.0931 H   0  0  0  0  0  0  0  0  0  0  0  0
  1  2  1  0
  2  3  2  0
  3  4  1  0
  4  5  2  0
  5  6  1  0
  6  7  1  0
  7  8  1  0
  8  9  2  0
  9 10  1  0
 10 11  2  0
 11 12  1  0
 12 13  2  0
 13 14  1  0
 14 15  2  0
 15 16  1  0
 16 17  2  0
 17 18  1  0
 18 19  2  0
 19 20  1  0
 20 21  2  0
 21 22  1  0
 22 23  2  0
 23 24  1  0
 24 25  1  0
 24 26  2  0
 26 27  1  0
 27 28  2  0
 28 29  1  0
 19 30  1  0
 30 31  2  0
 15 32  1  0
 32 33  1  0
 32 34  2  0
 11 35  1  0
 35 36  2  0
  7 37  2  0
 37 38  1  0
 38 39  2  0
 39  2  1  0
 38  5  1  0
 36  8  1  0
 34 12  1  0
 31 16  1  0
 29 20  1  0
 28 22  1  0
  1 40  1  0
  1 41  1  0
  1 42  1  0
  3 43  1  0
  4 44  1  0
  6 45  1  0
  9 46  1  0
 10 47  1  0
 13 48  1  0
 14 49  1  0
 17 50  1  0
 18 51  1  0
 23 52  1  0
 25 53  1  0
 25 54  1  0
 25 55  1  0
 26 56  1  0
 27 57  1  0
 29 58  1  0
 30 59  1  0
 31 60  1  0
 34 61  1  0
 35 62  1  0
 36 63  1  0
 39 64  1  0
M  END
