
     RDKit          3D

 35 38  0  0  0  0  0  0  0  0999 V2000
    3.6078    2.3902   -0.6692 C   0  0  0  0  0  0  0  0  0  0  0  0
    2.4366    1.6035   -0.4497 O   0  0  0  0  0  0  0  0  0  0  0  0
    2.4907    0.2619   -0.1858 C   0  0  0  0  0  0  0  0  0  0  0  0
    3.7283   -0.4040   -0.1199 C   0  0  0  0  0  0  0  0  0  0  0  0
    3.8037   -1.7382    0.1415 C   0  0  0  0  0  0  0  0  0  0  0  0
    2.6308   -2.4320    0.3426 C   0  0  0  0  0  0  0  0  0  0  0  0
    1.3883   -1.7861    0.2810 C   0  0  0  0  0  0  0  0  0  0  0  0
    0.2255   -2.4909    0.4837 C   0  0  0  0  0  0  0  0  0  0  0  0
   -0.9944   -1.8352    0.4190 C   0  0  0  0  0  0  0  0  0  0  0  0
   -2.2163   -2.6221    0.6413 C   0  0  0  0  0  0  0  0  0  0  0  0
   -1.0975   -0.4967    0.1582 C   0  0  0  0  0  0  0  0  0  0  0  0
   -2.1809    0.3510    0.0479 C   0  0  0  0  0  0  0  0  0  0  0  0
   -3.5432    0.1905    0.1531 C   0  0  0  0  0  0  0  0  0  0  0  0
   -4.3590    1.2800   -0.0197 C   0  0  0  0  0  0  0  0  0  0  0  0
   -3.8240    2.5356   -0.2983 C   0  0  0  0  0  0  0  0  0  0  0  0
   -2.4703    2.6791   -0.3996 C   0  0  0  0  0  0  0  0  0  0  0  0
   -1.6213    1.6041   -0.2315 C   0  0  0  0  0  0  0  0  0  0  0  0
   -0.2807    1.4773   -0.2784 N   0  0  0  0  0  0  0  0  0  0  0  0
    0.0857    0.2106   -0.0461 C   0  0  0  0  0  0  0  0  0  0  0  0
    1.3104   -0.4205    0.0135 C   0  0  0  0  0  0  0  0  0  0  0  0
    3.9918    2.1095   -1.6615 H   0  0  0  0  0  0  0  0  0  0  0  0
    3.3888    3.4583   -0.6544 H   0  0  0  0  0  0  0  0  0  0  0  0
    4.3288    2.1432    0.1427 H   0  0  0  0  0  0  0  0  0  0  0  0
    4.6254    0.1706   -0.2825 H   0  0  0  0  0  0  0  0  0  0  0  0
    4.7678   -2.2245    0.1863 H   0  0  0  0  0  0  0  0  0  0  0  0
    2.6843   -3.4835    0.5489 H   0  0  0  0  0  0  0  0  0  0  0  0
    0.3016   -3.5500    0.6903 H   0  0  0  0  0  0  0  0  0  0  0  0
   -2.7607   -2.3504    1.5625 H   0  0  0  0  0  0  0  0  0  0  0  0
   -2.8567   -2.7094   -0.2568 H   0  0  0  0  0  0  0  0  0  0  0  0
   -1.8967   -3.6937    0.8385 H   0  0  0  0  0  0  0  0  0  0  0  0
   -3.9965   -0.7532    0.3652 H   0  0  0  0  0  0  0  0  0  0  0  0
   -5.4550    1.1989    0.0554 H   0  0  0  0  0  0  0  0  0  0  0  0
   -4.5148    3.3558   -0.4243 H   0  0  0  0  0  0  0  0  0  0  0  0
   -2.0448    3.6712   -0.6199 H   0  0  0  0  0  0  0  0  0  0  0  0
    0.3169    2.2991   -0.4740 H   0  0  0  0  0  0  0  0  0  0  0  0
  1  2  1  0
  2  3  1  0
  3  4  2  0
  4  5  1  0
  5  6  2  0
  6  7  1  0
  7  8  2  0
  8  9  1  0
  9 10  1  0
  9 11  2  0
 11 12  1  0
 12 13  2  0
 13 14  1  0
 14 15  2  0
 15 16  1  0
 16 17  2  0
 17 18  1  0
 18 19  1  0
 19 20  2  0
 20  3  1  0
 20  7  1  0
 19 11  1  0
 17 12  1  0
  1 21  1  0
  1 22  1  0
  1 23  1  0
  4 24  1  0
  5 25  1  0
  6 26  1  0
  8 27  1  0
 10 28  1  0
 10 29  1  0
 10 30  1  0
 13 31  1  0
 14 32  1  0
 15 33  1  0
 16 34  1  0
 18 35  1  0
M  END
