
     RDKit          3D

 60 65  0  0  0  0  0  0  0  0999 V2000
   -7.0236   -5.6834   -0.0125 O   0  0  0  0  0  0  0  0  0  0  0  0
   -6.9258   -4.7603    0.8271 C   0  0  0  0  0  0  0  0  0  0  0  0
   -6.0692   -3.6145    0.5942 C   0  0  0  0  0  0  0  0  0  0  0  0
   -5.3149   -3.4620   -0.5463 C   0  0  0  0  0  0  0  0  0  0  0  0
   -4.5035   -2.3694   -0.7608 C   0  0  0  0  0  0  0  0  0  0  0  0
   -4.4077   -1.3482    0.1921 C   0  0  0  0  0  0  0  0  0  0  0  0
   -3.4897   -0.2989    0.0183 N   0  0  0  0  0  0  0  0  0  0  0  0
   -3.8572    1.0767    0.0533 C   0  0  0  0  0  0  0  0  0  0  0  0
   -4.6425    1.7158    0.9368 C   0  0  0  0  0  0  0  0  0  0  0  0
   -4.9371    3.0815    0.8350 C   0  0  0  0  0  0  0  0  0  0  0  0
   -4.4290    3.8440   -0.1882 C   0  0  0  0  0  0  0  0  0  0  0  0
   -4.7181    5.2600   -0.3178 C   0  0  0  0  0  0  0  0  0  0  0  0
   -5.4498    5.8373    0.5090 O   0  0  0  0  0  0  0  0  0  0  0  0
   -3.6146    3.1794   -1.1027 C   0  0  0  0  0  0  0  0  0  0  0  0
   -3.3283    1.8493   -1.0029 C   0  0  0  0  0  0  0  0  0  0  0  0
   -2.0549   -0.4743   -0.0797 C   0  0  0  0  0  0  0  0  0  0  0  0
   -1.4237   -1.4063   -0.8270 C   0  0  0  0  0  0  0  0  0  0  0  0
   -0.0209   -1.4841   -0.8299 C   0  0  0  0  0  0  0  0  0  0  0  0
    0.7640   -0.6390   -0.0925 C   0  0  0  0  0  0  0  0  0  0  0  0
    2.2164   -0.7638   -0.1352 C   0  0  0  0  0  0  0  0  0  0  0  0
    2.8407   -1.9874   -0.3202 C   0  0  0  0  0  0  0  0  0  0  0  0
    4.2119   -2.1273   -0.3641 C   0  0  0  0  0  0  0  0  0  0  0  0
    5.0011   -0.9978   -0.2172 C   0  0  0  0  0  0  0  0  0  0  0  0
    4.4247    0.2510   -0.0293 C   0  0  0  0  0  0  0  0  0  0  0  0
    3.0313    0.3402    0.0078 C   0  0  0  0  0  0  0  0  0  0  0  0
    5.2691    1.4294    0.1235 C   0  0  0  0  0  0  0  0  0  0  0  0
    4.7656    2.5654    0.2940 O   0  0  0  0  0  0  0  0  0  0  0  0
    6.7228    1.3061    0.0803 C   0  0  0  0  0  0  0  0  0  0  0  0
    7.5519    2.4099    0.2227 C   0  0  0  0  0  0  0  0  0  0  0  0
    8.9324    2.3206    0.1855 C   0  0  0  0  0  0  0  0  0  0  0  0
    9.5187    1.0860   -0.0007 C   0  0  0  0  0  0  0  0  0  0  0  0
    8.7194   -0.0289   -0.1451 C   0  0  0  0  0  0  0  0  0  0  0  0
    7.3311    0.0777   -0.1053 C   0  0  0  0  0  0  0  0  0  0  0  0
    6.4687   -1.0863   -0.2557 C   0  0  0  0  0  0  0  0  0  0  0  0
    6.9789   -2.2245   -0.4268 O   0  0  0  0  0  0  0  0  0  0  0  0
    0.1029    0.3068    0.6649 C   0  0  0  0  0  0  0  0  0  0  0  0
   -1.2676    0.4007    0.6826 C   0  0  0  0  0  0  0  0  0  0  0  0
   -5.1811   -1.5315    1.3332 C   0  0  0  0  0  0  0  0  0  0  0  0
   -5.9950   -2.6258    1.5457 C   0  0  0  0  0  0  0  0  0  0  0  0
   -7.4937   -4.8293    1.7362 H   0  0  0  0  0  0  0  0  0  0  0  0
   -5.3895   -4.2575   -1.2836 H   0  0  0  0  0  0  0  0  0  0  0  0
   -3.9913   -2.3252   -1.7190 H   0  0  0  0  0  0  0  0  0  0  0  0
   -5.0722    1.2007    1.7713 H   0  0  0  0  0  0  0  0  0  0  0  0
   -5.5719    3.5581    1.5638 H   0  0  0  0  0  0  0  0  0  0  0  0
   -4.2957    5.8088   -1.1338 H   0  0  0  0  0  0  0  0  0  0  0  0
   -3.2029    3.7621   -1.9186 H   0  0  0  0  0  0  0  0  0  0  0  0
   -2.6961    1.3656   -1.7253 H   0  0  0  0  0  0  0  0  0  0  0  0
   -1.9504   -2.1103   -1.4352 H   0  0  0  0  0  0  0  0  0  0  0  0
    0.4330   -2.2358   -1.4356 H   0  0  0  0  0  0  0  0  0  0  0  0
    2.1660   -2.8418   -0.4306 H   0  0  0  0  0  0  0  0  0  0  0  0
    4.6627   -3.0941   -0.5095 H   0  0  0  0  0  0  0  0  0  0  0  0
    2.5837    1.3306    0.1570 H   0  0  0  0  0  0  0  0  0  0  0  0
    7.0903    3.3713    0.3684 H   0  0  0  0  0  0  0  0  0  0  0  0
    9.5297    3.2246    0.3037 H   0  0  0  0  0  0  0  0  0  0  0  0
   10.5980    1.0510   -0.0248 H   0  0  0  0  0  0  0  0  0  0  0  0
    9.1556   -0.9984   -0.2904 H   0  0  0  0  0  0  0  0  0  0  0  0
    0.7408    0.9760    1.2494 H   0  0  0  0  0  0  0  0  0  0  0  0
   -1.7517    1.1644    1.2958 H   0  0  0  0  0  0  0  0  0  0  0  0
   -5.1546   -0.8270    2.1480 H   0  0  0  0  0  0  0  0  0  0  0  0
   -6.5872   -2.7181    2.4690 H   0  0  0  0  0  0  0  0  0  0  0  0
  1  2  2  0
  2  3  1  0
  3  4  2  0
  4  5  1  0
  5  6  2  0
  6  7  1  0
  7  8  1  0
  8  9  2  0
  9 10  1  0
 10 11  2  0
 11 12  1  0
 12 13  2  0
 11 14  1  0
 14 15  2  0
  7 16  1  0
 16 17  2  0
 17 18  1  0
 18 19  2  0
 19 20  1  0
 20 21  2  0
 21 22  1  0
 22 23  2  0
 23 24  1  0
 24 25  2  0
 24 26  1  0
 26 27  2  0
 26 28  1  0
 28 29  2  0
 29 30  1  0
 30 31  2  0
 31 32  1  0
 32 33  2  0
 33 34  1  0
 34 35  2  0
 19 36  1  0
 36 37  2  0
  6 38  1  0
 38 39  2  0
 39  3  1  0
 15  8  1  0
 37 16  1  0
 25 20  1  0
 33 28  1  0
 34 23  1  0
  2 40  1  0
  4 41  1  0
  5 42  1  0
  9 43  1  0
 10 44  1  0
 12 45  1  0
 14 46  1  0
 15 47  1  0
 17 48  1  0
 18 49  1  0
 21 50  1  0
 22 51  1  0
 25 52  1  0
 29 53  1  0
 30 54  1  0
 31 55  1  0
 32 56  1  0
 36 57  1  0
 37 58  1  0
 38 59  1  0
 39 60  1  0
M  END
