
     RDKit          3D

 41 44  0  0  0  0  0  0  0  0999 V2000
    6.4805   -0.2229   -0.3935 C   0  0  0  0  0  0  0  0  0  0  0  0
    5.3143    0.4909   -0.1084 O   0  0  0  0  0  0  0  0  0  0  0  0
    4.0374   -0.0241   -0.2099 C   0  0  0  0  0  0  0  0  0  0  0  0
    3.8323   -1.3276   -0.6158 C   0  0  0  0  0  0  0  0  0  0  0  0
    2.5569   -1.8298   -0.7132 C   0  0  0  0  0  0  0  0  0  0  0  0
    1.4848   -0.9897   -0.3924 C   0  0  0  0  0  0  0  0  0  0  0  0
    0.2053   -1.4654   -0.4812 C   0  0  0  0  0  0  0  0  0  0  0  0
   -0.0630   -2.6383   -0.8423 O   0  0  0  0  0  0  0  0  0  0  0  0
   -0.8677   -0.6187   -0.1583 C   0  0  0  0  0  0  0  0  0  0  0  0
   -0.6131    0.6825    0.2444 C   0  0  0  0  0  0  0  0  0  0  0  0
    0.6519    1.1537    0.3325 N   0  0  0  0  0  0  0  0  0  0  0  0
    1.6600    0.2983    0.0100 C   0  0  0  0  0  0  0  0  0  0  0  0
    2.9549    0.7863    0.1020 C   0  0  0  0  0  0  0  0  0  0  0  0
   -1.7573    1.5658    0.5826 C   0  0  0  0  0  0  0  0  0  0  0  0
   -1.5096    2.8501    0.9802 C   0  0  0  0  0  0  0  0  0  0  0  0
   -2.5889    3.6792    1.2979 C   0  0  0  0  0  0  0  0  0  0  0  0
   -3.8660    3.1927    1.2055 C   0  0  0  0  0  0  0  0  0  0  0  0
   -4.1453    1.9068    0.8090 C   0  0  0  0  0  0  0  0  0  0  0  0
   -3.0461    1.0908    0.4945 C   0  0  0  0  0  0  0  0  0  0  0  0
   -3.2637   -0.2433    0.0797 N   0  0  0  0  0  0  0  0  0  0  0  0
   -2.2338   -1.1731   -0.2680 C   0  0  0  0  0  0  0  0  0  0  0  0
   -2.4683   -1.7035   -1.6917 C   0  0  0  0  0  0  0  0  0  0  0  0
   -2.4095   -2.3800    0.6499 C   0  0  0  0  0  0  0  0  0  0  0  0
    6.4594   -1.2647    0.0115 H   0  0  0  0  0  0  0  0  0  0  0  0
    7.3582    0.2757    0.0511 H   0  0  0  0  0  0  0  0  0  0  0  0
    6.6208   -0.3340   -1.5016 H   0  0  0  0  0  0  0  0  0  0  0  0
    4.6599   -1.9712   -0.8618 H   0  0  0  0  0  0  0  0  0  0  0  0
    2.3941   -2.8485   -1.0303 H   0  0  0  0  0  0  0  0  0  0  0  0
    0.8864    2.1302    0.6326 H   0  0  0  0  0  0  0  0  0  0  0  0
    3.1486    1.7959    0.4146 H   0  0  0  0  0  0  0  0  0  0  0  0
   -0.5088    3.2364    1.0542 H   0  0  0  0  0  0  0  0  0  0  0  0
   -2.3668    4.7034    1.6137 H   0  0  0  0  0  0  0  0  0  0  0  0
   -4.6857    3.8819    1.4658 H   0  0  0  0  0  0  0  0  0  0  0  0
   -5.1561    1.5325    0.7393 H   0  0  0  0  0  0  0  0  0  0  0  0
   -4.2887   -0.5672    0.0272 H   0  0  0  0  0  0  0  0  0  0  0  0
   -2.3371   -2.8064   -1.7311 H   0  0  0  0  0  0  0  0  0  0  0  0
   -3.4906   -1.4585   -2.0422 H   0  0  0  0  0  0  0  0  0  0  0  0
   -1.7305   -1.2565   -2.3958 H   0  0  0  0  0  0  0  0  0  0  0  0
   -1.5697   -2.4188    1.3952 H   0  0  0  0  0  0  0  0  0  0  0  0
   -2.3428   -3.3360    0.0903 H   0  0  0  0  0  0  0  0  0  0  0  0
   -3.3965   -2.3745    1.1540 H   0  0  0  0  0  0  0  0  0  0  0  0
  1  2  1  0
  2  3  1  0
  3  4  2  0
  4  5  1  0
  5  6  2  0
  6  7  1  0
  7  8  2  0
  7  9  1  0
  9 10  2  0
 10 11  1  0
 11 12  1  0
 12 13  2  0
 10 14  1  0
 14 15  2  0
 15 16  1  0
 16 17  2  0
 17 18  1  0
 18 19  2  0
 19 20  1  0
 20 21  1  0
 21 22  1  0
 21 23  1  0
 13  3  1  0
 19 14  1  0
 12  6  1  0
 21  9  1  0
  1 24  1  0
  1 25  1  0
  1 26  1  0
  4 27  1  0
  5 28  1  0
 11 29  1  0
 13 30  1  0
 15 31  1  0
 16 32  1  0
 17 33  1  0
 18 34  1  0
 20 35  1  0
 22 36  1  0
 22 37  1  0
 22 38  1  0
 23 39  1  0
 23 40  1  0
 23 41  1  0
M  END
