
     RDKit          3D

 34 37  0  0  0  0  0  0  0  0999 V2000
    5.7973   -2.0415    4.9358 N   0  0  0  0  0  0  0  0  0  0  0  0
    5.2236   -1.4600    4.1265 C   0  0  0  0  0  0  0  0  0  0  0  0
    4.5055   -0.6967    3.0966 C   0  0  0  0  0  0  0  0  0  0  0  0
    4.9167    0.6101    2.7419 C   0  0  0  0  0  0  0  0  0  0  0  0
    5.2628    1.7204    2.4432 N   0  0  0  0  0  0  0  0  0  0  0  0
    3.4579   -1.2534    2.5598 C   0  0  0  0  0  0  0  0  0  0  0  0
    2.6002   -0.7069    1.5283 C   0  0  0  0  0  0  0  0  0  0  0  0
    3.0171    0.1155    0.5033 C   0  0  0  0  0  0  0  0  0  0  0  0
    2.1644    0.6031   -0.4570 C   0  0  0  0  0  0  0  0  0  0  0  0
    0.8243    0.2826   -0.4381 C   0  0  0  0  0  0  0  0  0  0  0  0
    0.3548   -0.5508    0.5844 C   0  0  0  0  0  0  0  0  0  0  0  0
    1.2390   -1.0183    1.5265 C   0  0  0  0  0  0  0  0  0  0  0  0
   -0.9664   -0.7233    0.3875 N   0  0  0  0  0  0  0  0  0  0  0  0
   -1.3410   -0.0150   -0.7381 C   0  0  0  0  0  0  0  0  0  0  0  0
   -2.5854    0.0994   -1.3237 C   0  0  0  0  0  0  0  0  0  0  0  0
   -3.7227   -0.5455   -0.8224 C   0  0  0  0  0  0  0  0  0  0  0  0
   -4.9656   -0.4225   -1.4492 C   0  0  0  0  0  0  0  0  0  0  0  0
   -5.0850    0.3585   -2.5998 C   0  0  0  0  0  0  0  0  0  0  0  0
   -3.9875    0.9781   -3.0773 C   0  0  0  0  0  0  0  0  0  0  0  0
   -2.7571    0.8659   -2.4710 C   0  0  0  0  0  0  0  0  0  0  0  0
   -1.6318    1.4823   -2.9612 C   0  0  0  0  0  0  0  0  0  0  0  0
   -0.3844    1.3797   -2.3919 C   0  0  0  0  0  0  0  0  0  0  0  0
   -0.2286    0.6010   -1.2366 C   0  0  0  0  0  0  0  0  0  0  0  0
    3.1994   -2.2720    2.9497 H   0  0  0  0  0  0  0  0  0  0  0  0
    4.0648    0.3877    0.4308 H   0  0  0  0  0  0  0  0  0  0  0  0
    2.4957    1.2552   -1.2723 H   0  0  0  0  0  0  0  0  0  0  0  0
    0.8636   -1.6648    2.3117 H   0  0  0  0  0  0  0  0  0  0  0  0
   -1.5775   -1.2957    0.9923 H   0  0  0  0  0  0  0  0  0  0  0  0
   -3.5682   -1.1346    0.0713 H   0  0  0  0  0  0  0  0  0  0  0  0
   -5.8360   -0.9140   -1.0647 H   0  0  0  0  0  0  0  0  0  0  0  0
   -6.0769    0.4365   -3.0749 H   0  0  0  0  0  0  0  0  0  0  0  0
   -4.0376    1.6066   -3.9841 H   0  0  0  0  0  0  0  0  0  0  0  0
   -1.7489    2.0867   -3.8569 H   0  0  0  0  0  0  0  0  0  0  0  0
    0.5137    1.8459   -2.7434 H   0  0  0  0  0  0  0  0  0  0  0  0
  1  2  3  0
  2  3  1  0
  3  4  1  0
  4  5  3  0
  3  6  2  3
  6  7  1  0
  7  8  2  0
  8  9  1  0
  9 10  2  0
 10 11  1  0
 11 12  2  0
 11 13  1  0
 13 14  1  0
 14 15  2  0
 15 16  1  0
 16 17  2  0
 17 18  1  0
 18 19  2  0
 19 20  1  0
 20 21  2  0
 21 22  1  0
 22 23  2  0
 12  7  1  0
 23 14  1  0
 23 10  1  0
 20 15  1  0
  6 24  1  0
  8 25  1  0
  9 26  1  0
 12 27  1  0
 13 28  1  0
 16 29  1  0
 17 30  1  0
 18 31  1  0
 19 32  1  0
 21 33  1  0
 22 34  1  0
M  END
