
     RDKit          3D

 66 71  0  0  0  0  0  0  0  0999 V2000
   -0.8052   -5.0274   -5.3138 C   0  0  0  0  0  0  0  0  0  0  0  0
   -1.9946   -4.1857   -4.9699 O   0  0  0  0  0  0  0  0  0  0  0  0
   -1.6007   -3.1881   -4.0047 C   0  0  0  0  0  0  0  0  0  0  0  0
   -0.3608   -3.2009   -3.8154 O   0  0  0  0  0  0  0  0  0  0  0  0
   -2.5176   -2.3290   -3.3337 C   0  0  0  0  0  0  0  0  0  0  0  0
   -3.9306   -2.2927   -3.5729 C   0  0  0  0  0  0  0  0  0  0  0  0
   -5.1665   -2.2466   -3.7892 N   0  0  0  0  0  0  0  0  0  0  0  0
   -2.0425   -1.5803   -2.3018 C   0  0  0  0  0  0  0  0  0  0  0  0
   -0.3888   -1.6130   -1.7770 S   0  0  0  0  0  0  0  0  0  0  0  0
   -0.5375   -0.5177   -0.4278 C   0  0  0  0  0  0  0  0  0  0  0  0
    0.3646   -0.1522    0.4161 C   0  0  0  0  0  0  0  0  0  0  0  0
    0.1498    0.9602    1.7225 S   0  0  0  0  0  0  0  0  0  0  0  0
    1.6957    0.8332    2.3850 C   0  0  0  0  0  0  0  0  0  0  0  0
    2.2491    1.6951    3.3400 C   0  0  0  0  0  0  0  0  0  0  0  0
    3.5209    1.4101    3.7632 C   0  0  0  0  0  0  0  0  0  0  0  0
    4.7727    1.1532    4.1709 N   0  0  0  0  0  0  0  0  0  0  0  0
    1.4046    2.7960    3.6925 C   0  0  0  0  0  0  0  0  0  0  0  0
    0.2315    2.8499    3.2563 O   0  0  0  0  0  0  0  0  0  0  0  0
    1.6953    3.9366    4.5044 O   0  0  0  0  0  0  0  0  0  0  0  0
    0.5631    4.8621    4.5792 C   0  0  0  0  0  0  0  0  0  0  0  0
    2.3936   -0.0986    1.5624 C   0  0  0  0  0  0  0  0  0  0  0  0
    3.6789   -0.5063    1.6276 C   0  0  0  0  0  0  0  0  0  0  0  0
    4.1746   -1.3848    0.5661 C   0  0  0  0  0  0  0  0  0  0  0  0
    5.5850   -1.6725    0.3891 C   0  0  0  0  0  0  0  0  0  0  0  0
    6.1911   -1.9465   -0.8013 C   0  0  0  0  0  0  0  0  0  0  0  0
    7.5873   -2.0217   -0.9737 C   0  0  0  0  0  0  0  0  0  0  0  0
    8.3769   -1.8126    0.1306 C   0  0  0  0  0  0  0  0  0  0  0  0
    9.8824   -1.6406   -0.0769 C   0  0  0  0  0  0  0  0  0  0  0  0
    7.8401   -1.5653    1.3524 C   0  0  0  0  0  0  0  0  0  0  0  0
    6.4640   -1.5029    1.4814 C   0  0  0  0  0  0  0  0  0  0  0  0
    2.7584   -1.5523   -0.3167 S   0  0  0  0  0  0  0  0  0  0  0  0
    1.6386   -0.5637    0.5636 C   0  0  0  0  0  0  0  0  0  0  0  0
   -1.8579   -0.2315   -0.5279 C   0  0  0  0  0  0  0  0  0  0  0  0
   -2.8752    0.9011    0.4198 S   0  0  0  0  0  0  0  0  0  0  0  0
   -4.2977    0.6846   -0.3740 C   0  0  0  0  0  0  0  0  0  0  0  0
   -5.6062    1.4237   -0.2904 C   0  0  0  0  0  0  0  0  0  0  0  0
   -5.6787    2.5424    0.2604 C   0  0  0  0  0  0  0  0  0  0  0  0
   -6.8025    3.3837    0.4781 C   0  0  0  0  0  0  0  0  0  0  0  0
   -7.9707    2.6727   -0.0879 C   0  0  0  0  0  0  0  0  0  0  0  0
   -9.2789    3.4390    0.0732 C   0  0  0  0  0  0  0  0  0  0  0  0
   -7.8775    1.5408   -0.6410 C   0  0  0  0  0  0  0  0  0  0  0  0
   -6.7540    0.7042   -0.8580 C   0  0  0  0  0  0  0  0  0  0  0  0
   -4.0036   -0.2587   -1.3714 C   0  0  0  0  0  0  0  0  0  0  0  0
   -2.6569   -0.6825   -1.3630 C   0  0  0  0  0  0  0  0  0  0  0  0
    0.0224   -4.4010   -5.6289 H   0  0  0  0  0  0  0  0  0  0  0  0
   -0.5393   -5.3365   -4.2199 H   0  0  0  0  0  0  0  0  0  0  0  0
   -1.0914   -5.9079   -5.8181 H   0  0  0  0  0  0  0  0  0  0  0  0
    0.0160    4.7521    3.5560 H   0  0  0  0  0  0  0  0  0  0  0  0
   -0.1622    4.5741    5.3447 H   0  0  0  0  0  0  0  0  0  0  0  0
    0.8965    5.9269    4.6918 H   0  0  0  0  0  0  0  0  0  0  0  0
    4.3961   -0.3421    2.4362 H   0  0  0  0  0  0  0  0  0  0  0  0
    5.5931   -2.1234   -1.6889 H   0  0  0  0  0  0  0  0  0  0  0  0
    8.0623   -2.2349   -1.9000 H   0  0  0  0  0  0  0  0  0  0  0  0
   10.3449   -1.2556    0.8254 H   0  0  0  0  0  0  0  0  0  0  0  0
    9.8840   -0.7451   -0.8240 H   0  0  0  0  0  0  0  0  0  0  0  0
   10.3660   -2.4778   -0.5140 H   0  0  0  0  0  0  0  0  0  0  0  0
    8.5129   -1.4384    2.1932 H   0  0  0  0  0  0  0  0  0  0  0  0
    6.0745   -1.3258    2.4697 H   0  0  0  0  0  0  0  0  0  0  0  0
   -4.7350    3.0561    0.6767 H   0  0  0  0  0  0  0  0  0  0  0  0
   -6.8549    4.2635    0.9174 H   0  0  0  0  0  0  0  0  0  0  0  0
   -9.2863    4.1673   -0.7724 H   0  0  0  0  0  0  0  0  0  0  0  0
  -10.1125    2.6949   -0.0738 H   0  0  0  0  0  0  0  0  0  0  0  0
   -9.3253    3.9281    1.0763 H   0  0  0  0  0  0  0  0  0  0  0  0
   -8.8097    1.0312   -1.0647 H   0  0  0  0  0  0  0  0  0  0  0  0
   -6.6438   -0.1584   -1.3075 H   0  0  0  0  0  0  0  0  0  0  0  0
   -4.8217   -0.6618   -1.9290 H   0  0  0  0  0  0  0  0  0  0  0  0
  1  2  1  0
  2  3  1  0
  3  4  2  0
  3  5  1  0
  5  6  1  0
  6  7  3  0
  5  8  2  0
  8  9  1  0
  9 10  1  0
 10 11  2  0
 11 12  1  0
 12 13  1  0
 13 14  2  0
 14 15  1  0
 15 16  3  0
 14 17  1  0
 17 18  2  0
 17 19  1  0
 19 20  1  0
 13 21  1  0
 21 22  1  0
 22 23  2  0
 23 24  1  0
 24 25  2  0
 25 26  1  0
 26 27  2  0
 27 28  1  0
 27 29  1  0
 29 30  2  0
 23 31  1  0
 31 32  1  0
 10 33  1  0
 33 34  1  0
 34 35  1  0
 35 36  1  0
 36 37  2  0
 37 38  1  0
 38 39  2  0
 39 40  1  0
 39 41  1  0
 41 42  2  0
 35 43  2  0
 43 44  1  0
 44  8  1  0
 32 11  1  0
 44 33  2  0
 32 21  2  0
 42 36  1  0
 30 24  1  0
  1 45  1  0
  1 46  1  0
  1 47  1  0
 20 48  1  0
 20 49  1  0
 20 50  1  0
 22 51  1  0
 25 52  1  0
 26 53  1  0
 28 54  1  0
 28 55  1  0
 28 56  1  0
 29 57  1  0
 30 58  1  0
 37 59  1  0
 38 60  1  0
 40 61  1  0
 40 62  1  0
 40 63  1  0
 41 64  1  0
 42 65  1  0
 43 66  1  0
M  END
