
     RDKit          3D

 49 51  0  0  0  0  0  0  0  0999 V2000
   -7.3294   -1.7138   -0.8146 C   0  0  0  0  0  0  0  0  0  0  0  0
   -6.2322   -2.4577   -0.3413 O   0  0  0  0  0  0  0  0  0  0  0  0
   -4.9902   -1.8983   -0.3190 C   0  0  0  0  0  0  0  0  0  0  0  0
   -3.8969   -2.5986    0.1376 C   0  0  0  0  0  0  0  0  0  0  0  0
   -2.6175   -2.0457    0.1691 C   0  0  0  0  0  0  0  0  0  0  0  0
   -2.4605   -0.7609   -0.2729 C   0  0  0  0  0  0  0  0  0  0  0  0
   -1.1331   -0.0830   -0.2784 C   0  0  0  0  0  0  0  0  0  0  0  0
   -0.0332   -0.6778    0.1408 C   0  0  0  0  0  0  0  0  0  0  0  0
    1.2518    0.0007    0.1274 C   0  0  0  0  0  0  0  0  0  0  0  0
    2.4735   -0.6399    0.5857 C   0  0  0  0  0  0  0  0  0  0  0  0
    2.5335   -1.9266    1.0680 C   0  0  0  0  0  0  0  0  0  0  0  0
    3.7246   -2.5055    1.4981 C   0  0  0  0  0  0  0  0  0  0  0  0
    4.9081   -1.8071    1.4589 C   0  0  0  0  0  0  0  0  0  0  0  0
    6.0768   -2.4150    1.8955 O   0  0  0  0  0  0  0  0  0  0  0  0
    7.3221   -1.7854    1.8927 C   0  0  0  0  0  0  0  0  0  0  0  0
    4.8505   -0.5215    0.9773 C   0  0  0  0  0  0  0  0  0  0  0  0
    3.6883    0.0580    0.5523 C   0  0  0  0  0  0  0  0  0  0  0  0
    1.3152    1.1709   -0.2898 O   0  0  0  0  0  3  0  0  0  0  0  0
    0.1925    1.9636   -0.7857 B   0  0  0  0  0  4  0  0  0  0  0  0
    0.5346    2.3665   -2.2848 C   0  0  0  0  0  0  0  0  0  0  0  0
    0.3419    3.7460   -2.7966 C   0  0  0  0  0  0  0  0  0  0  0  0
    0.9651    1.4769   -2.9920 O   0  0  0  0  0  0  0  0  0  0  0  0
    0.1458    3.2931    0.0540 C   0  0  0  0  0  0  0  0  0  0  0  0
   -0.8071    3.4890    1.1743 C   0  0  0  0  0  0  0  0  0  0  0  0
    0.9255    4.1746   -0.2431 O   0  0  0  0  0  0  0  0  0  0  0  0
   -1.0510    1.2129   -0.7381 O   0  0  0  0  0  0  0  0  0  0  0  0
   -3.5506   -0.0325   -0.7392 C   0  0  0  0  0  0  0  0  0  0  0  0
   -4.7986   -0.6046   -0.7579 C   0  0  0  0  0  0  0  0  0  0  0  0
   -7.1165   -1.2234   -1.8057 H   0  0  0  0  0  0  0  0  0  0  0  0
   -8.1491   -2.4473   -1.0113 H   0  0  0  0  0  0  0  0  0  0  0  0
   -7.7076   -0.9737   -0.0745 H   0  0  0  0  0  0  0  0  0  0  0  0
   -4.0338   -3.6303    0.4905 H   0  0  0  0  0  0  0  0  0  0  0  0
   -1.7840   -2.6583    0.5461 H   0  0  0  0  0  0  0  0  0  0  0  0
   -0.1314   -1.7006    0.4977 H   0  0  0  0  0  0  0  0  0  0  0  0
    1.5978   -2.5040    1.1083 H   0  0  0  0  0  0  0  0  0  0  0  0
    3.6996   -3.5264    1.8676 H   0  0  0  0  0  0  0  0  0  0  0  0
    7.3896   -1.1687    2.8175 H   0  0  0  0  0  0  0  0  0  0  0  0
    7.4815   -1.1475    1.0082 H   0  0  0  0  0  0  0  0  0  0  0  0
    8.1023   -2.6012    1.8994 H   0  0  0  0  0  0  0  0  0  0  0  0
    5.7992    0.0144    0.9546 H   0  0  0  0  0  0  0  0  0  0  0  0
    3.6690    1.0767    0.1755 H   0  0  0  0  0  0  0  0  0  0  0  0
   -0.5204    4.1911   -2.2657 H   0  0  0  0  0  0  0  0  0  0  0  0
    0.1509    3.7188   -3.8980 H   0  0  0  0  0  0  0  0  0  0  0  0
    1.2520    4.3773   -2.5965 H   0  0  0  0  0  0  0  0  0  0  0  0
   -1.1166    4.5678    1.1952 H   0  0  0  0  0  0  0  0  0  0  0  0
   -0.2209    3.3346    2.1198 H   0  0  0  0  0  0  0  0  0  0  0  0
   -1.6832    2.8151    1.1163 H   0  0  0  0  0  0  0  0  0  0  0  0
   -3.3952    1.0019   -1.0897 H   0  0  0  0  0  0  0  0  0  0  0  0
   -5.6329    0.0051   -1.1340 H   0  0  0  0  0  0  0  0  0  0  0  0
  1  2  1  0
  2  3  1  0
  3  4  2  0
  4  5  1  0
  5  6  2  0
  6  7  1  0
  7  8  2  0
  8  9  1  0
  9 10  1  0
 10 11  2  0
 11 12  1  0
 12 13  2  0
 13 14  1  0
 14 15  1  0
 13 16  1  0
 16 17  2  0
  9 18  2  0
 18 19  1  0
 19 20  1  0
 20 21  1  0
 20 22  2  0
 19 23  1  0
 23 24  1  0
 23 25  2  0
 19 26  1  0
  6 27  1  0
 27 28  2  0
 28  3  1  0
 26  7  1  0
 17 10  1  0
  1 29  1  0
  1 30  1  0
  1 31  1  0
  4 32  1  0
  5 33  1  0
  8 34  1  0
 11 35  1  0
 12 36  1  0
 15 37  1  0
 15 38  1  0
 15 39  1  0
 16 40  1  0
 17 41  1  0
 21 42  1  0
 21 43  1  0
 21 44  1  0
 24 45  1  0
 24 46  1  0
 24 47  1  0
 27 48  1  0
 28 49  1  0
M  CHG  2  18   1  19  -1
M  END
