
     RDKit          3D

 91 96  0  0  0  0  0  0  0  0999 V2000
    7.1533    1.9786   -2.0913 C   0  0  0  0  0  0  0  0  0  0  0  0
    7.6199    2.2035   -0.6789 C   0  0  0  0  0  0  0  0  0  0  0  0
    6.6798    3.1052    0.0931 C   0  0  0  0  0  0  0  0  0  0  0  0
    5.2989    2.5325    0.1770 C   0  0  0  0  0  0  0  0  0  0  0  0
    4.1909    3.0978   -0.2644 C   0  0  0  0  0  0  0  0  0  0  0  0
    3.0991    2.1742    0.0329 C   0  0  0  0  0  0  0  0  0  0  0  0
    3.6633    1.1428    0.6234 N   0  0  0  0  0  0  0  0  0  0  0  0
    4.9524    1.2402    0.7661 C   0  0  0  0  0  0  0  0  0  0  0  0
    5.6911    0.2251    1.4184 C   0  0  0  0  0  0  0  0  0  0  0  0
    5.2293   -1.0858    1.5298 C   0  0  0  0  0  0  0  0  0  0  0  0
    3.9874   -1.6219    1.2124 C   0  0  0  0  0  0  0  0  0  0  0  0
    2.7296   -1.2317    1.5158 N   0  0  0  0  0  0  0  0  0  0  0  0
    1.9052   -2.0278    0.8410 C   0  0  0  0  0  0  0  0  0  0  0  0
    2.6317   -2.9745    0.0892 C   0  0  0  0  0  0  0  0  0  0  0  0
    3.9455   -2.7210    0.3215 C   0  0  0  0  0  0  0  0  0  0  0  0
    5.0562   -3.5382   -0.2732 C   0  0  0  0  0  0  0  0  0  0  0  0
    5.6068   -4.5399    0.6878 C   0  0  0  0  0  0  0  0  0  0  0  0
    4.5277   -5.5127    1.1404 C   0  0  0  0  0  0  0  0  0  0  0  0
    0.4958   -1.9754    0.6455 C   0  0  0  0  0  0  0  0  0  0  0  0
   -0.1428   -0.8402    0.3878 N   0  0  0  0  0  0  0  0  0  0  0  0
   -1.4248   -1.0152    0.1191 C   0  0  0  0  0  0  0  0  0  0  0  0
   -2.2242    0.1042   -0.1830 C   0  0  0  0  0  0  0  0  0  0  0  0
   -3.5904   -0.1004    0.0012 O   0  0  0  0  0  0  0  0  0  0  0  0
   -4.5703    0.8758   -0.2384 C   0  0  0  0  0  0  0  0  0  0  0  0
   -5.9318    0.4121    0.0387 C   0  0  0  0  0  0  0  0  0  0  0  0
   -6.6716   -0.2180   -0.9363 C   0  0  0  0  0  0  0  0  0  0  0  0
   -7.9558   -0.6685   -0.7182 C   0  0  0  0  0  0  0  0  0  0  0  0
   -8.5624   -0.5039    0.5042 C   0  0  0  0  0  0  0  0  0  0  0  0
   -9.9051   -0.9588    0.7775 C   0  0  0  0  0  0  0  0  0  0  0  0
  -10.4138   -0.7873    1.9031 O   0  0  0  0  0  0  0  0  0  0  0  0
  -10.6281   -1.5864   -0.2136 O   0  0  0  0  0  0  0  0  0  0  0  0
   -7.8273    0.1351    1.5111 C   0  0  0  0  0  0  0  0  0  0  0  0
   -6.5427    0.5757    1.2644 C   0  0  0  0  0  0  0  0  0  0  0  0
   -1.6874    1.3211   -0.6290 C   0  0  0  0  0  0  0  0  0  0  0  0
   -0.4255    1.8863   -0.4175 C   0  0  0  0  0  0  0  0  0  0  0  0
    0.8121    1.4011   -0.6374 N   0  0  0  0  0  0  0  0  0  0  0  0
    1.6717    2.2837   -0.1407 C   0  0  0  0  0  0  0  0  0  0  0  0
    1.0246    3.3949    0.4089 C   0  0  0  0  0  0  0  0  0  0  0  0
   -0.3065    3.1472    0.2356 C   0  0  0  0  0  0  0  0  0  0  0  0
   -1.4041    4.0922    0.6513 C   0  0  0  0  0  0  0  0  0  0  0  0
   -1.9750    4.8778   -0.4745 C   0  0  0  0  0  0  0  0  0  0  0  0
   -3.0603    5.7691    0.1222 C   0  0  0  0  0  0  0  0  0  0  0  0
   -1.6794   -2.4450    0.2121 C   0  0  0  0  0  0  0  0  0  0  0  0
   -2.9455   -3.1910    0.0595 C   0  0  0  0  0  0  0  0  0  0  0  0
   -3.1957   -3.5546   -1.3594 C   0  0  0  0  0  0  0  0  0  0  0  0
   -3.2784   -2.3542   -2.2487 C   0  0  0  0  0  0  0  0  0  0  0  0
   -0.5242   -3.0061    0.5308 C   0  0  0  0  0  0  0  0  0  0  0  0
    8.0439    1.7558   -2.7446 H   0  0  0  0  0  0  0  0  0  0  0  0
    6.4976    1.0758   -2.1495 H   0  0  0  0  0  0  0  0  0  0  0  0
    6.6579    2.8815   -2.4755 H   0  0  0  0  0  0  0  0  0  0  0  0
    7.7803    1.2275   -0.2129 H   0  0  0  0  0  0  0  0  0  0  0  0
    8.5877    2.7734   -0.7413 H   0  0  0  0  0  0  0  0  0  0  0  0
    6.6135    4.0434   -0.4885 H   0  0  0  0  0  0  0  0  0  0  0  0
    7.0478    3.3287    1.0957 H   0  0  0  0  0  0  0  0  0  0  0  0
    4.0943    4.0780   -0.7612 H   0  0  0  0  0  0  0  0  0  0  0  0
    6.6338    0.5374    1.8264 H   0  0  0  0  0  0  0  0  0  0  0  0
    6.0321   -1.7676    1.9109 H   0  0  0  0  0  0  0  0  0  0  0  0
    2.4573   -0.4358    2.2574 H   0  0  0  0  0  0  0  0  0  0  0  0
    2.2926   -3.7848   -0.5605 H   0  0  0  0  0  0  0  0  0  0  0  0
    4.7367   -3.9461   -1.2243 H   0  0  0  0  0  0  0  0  0  0  0  0
    5.9004   -2.8239   -0.5059 H   0  0  0  0  0  0  0  0  0  0  0  0
    6.4056   -5.1136    0.1782 H   0  0  0  0  0  0  0  0  0  0  0  0
    6.0559   -4.1089    1.5950 H   0  0  0  0  0  0  0  0  0  0  0  0
    3.7256   -5.5332    0.3592 H   0  0  0  0  0  0  0  0  0  0  0  0
    4.9451   -6.5106    1.2833 H   0  0  0  0  0  0  0  0  0  0  0  0
    4.0427   -5.1730    2.0746 H   0  0  0  0  0  0  0  0  0  0  0  0
   -4.3722    1.8214    0.3421 H   0  0  0  0  0  0  0  0  0  0  0  0
   -4.4888    1.1771   -1.3037 H   0  0  0  0  0  0  0  0  0  0  0  0
   -6.1996   -0.3581   -1.9210 H   0  0  0  0  0  0  0  0  0  0  0  0
   -8.5089   -1.1601   -1.5086 H   0  0  0  0  0  0  0  0  0  0  0  0
  -11.5207   -2.0471   -0.0289 H   0  0  0  0  0  0  0  0  0  0  0  0
   -8.3066    0.2672    2.4829 H   0  0  0  0  0  0  0  0  0  0  0  0
   -5.9916    1.0703    2.0651 H   0  0  0  0  0  0  0  0  0  0  0  0
   -2.4604    1.8900   -1.2041 H   0  0  0  0  0  0  0  0  0  0  0  0
    1.0551    0.4700   -1.2188 H   0  0  0  0  0  0  0  0  0  0  0  0
    1.4514    4.3073    0.8765 H   0  0  0  0  0  0  0  0  0  0  0  0
   -2.1891    3.4935    1.1878 H   0  0  0  0  0  0  0  0  0  0  0  0
   -1.0086    4.7901    1.4148 H   0  0  0  0  0  0  0  0  0  0  0  0
   -1.1815    5.5425   -0.8715 H   0  0  0  0  0  0  0  0  0  0  0  0
   -2.3671    4.2694   -1.2927 H   0  0  0  0  0  0  0  0  0  0  0  0
   -2.9794    6.7918   -0.2883 H   0  0  0  0  0  0  0  0  0  0  0  0
   -2.9900    5.8237    1.2296 H   0  0  0  0  0  0  0  0  0  0  0  0
   -4.0443    5.3445   -0.1404 H   0  0  0  0  0  0  0  0  0  0  0  0
   -2.9357   -4.1370    0.6833 H   0  0  0  0  0  0  0  0  0  0  0  0
   -3.8032   -2.6219    0.4758 H   0  0  0  0  0  0  0  0  0  0  0  0
   -4.1355   -4.1645   -1.4315 H   0  0  0  0  0  0  0  0  0  0  0  0
   -2.3179   -4.1953   -1.6792 H   0  0  0  0  0  0  0  0  0  0  0  0
   -3.4410   -2.7568   -3.2973 H   0  0  0  0  0  0  0  0  0  0  0  0
   -2.3272   -1.7994   -2.2621 H   0  0  0  0  0  0  0  0  0  0  0  0
   -4.1663   -1.7588   -2.0146 H   0  0  0  0  0  0  0  0  0  0  0  0
   -0.4209   -4.0820    0.6710 H   0  0  0  0  0  0  0  0  0  0  0  0
  1  2  1  0
  2  3  1  0
  3  4  1  0
  4  5  2  0
  5  6  1  0
  6  7  2  0
  7  8  1  0
  8  9  2  0
  9 10  1  0
 10 11  2  0
 11 12  1  0
 12 13  1  0
 13 14  1  0
 14 15  2  0
 15 16  1  0
 16 17  1  0
 17 18  1  0
 13 19  2  0
 19 20  1  0
 20 21  2  0
 21 22  1  0
 22 23  1  0
 23 24  1  0
 24 25  1  0
 25 26  2  0
 26 27  1  0
 27 28  2  0
 28 29  1  0
 29 30  2  0
 29 31  1  0
 28 32  1  0
 32 33  2  0
 22 34  2  0
 34 35  1  0
 35 36  1  0
 36 37  1  0
 37 38  2  0
 38 39  1  0
 39 40  1  0
 40 41  1  0
 41 42  1  0
 21 43  1  0
 43 44  1  0
 44 45  1  0
 45 46  1  0
 43 47  2  0
  8  4  1  0
 15 11  1  0
 47 19  1  0
 37  6  1  0
 33 25  1  0
 39 35  2  0
  1 48  1  0
  1 49  1  0
  1 50  1  0
  2 51  1  0
  2 52  1  0
  3 53  1  0
  3 54  1  0
  5 55  1  0
  9 56  1  0
 10 57  1  0
 12 58  1  0
 14 59  1  0
 16 60  1  0
 16 61  1  0
 17 62  1  0
 17 63  1  0
 18 64  1  0
 18 65  1  0
 18 66  1  0
 24 67  1  0
 24 68  1  0
 26 69  1  0
 27 70  1  0
 31 71  1  0
 32 72  1  0
 33 73  1  0
 34 74  1  0
 36 75  1  0
 38 76  1  0
 40 77  1  0
 40 78  1  0
 41 79  1  0
 41 80  1  0
 42 81  1  0
 42 82  1  0
 42 83  1  0
 44 84  1  0
 44 85  1  0
 45 86  1  0
 45 87  1  0
 46 88  1  0
 46 89  1  0
 46 90  1  0
 47 91  1  0
M  END
