
     RDKit          3D

 45 48  0  0  0  0  0  0  0  0999 V2000
    6.0961    1.5746    1.9238 C   0  0  0  0  0  0  0  0  0  0  0  0
    4.9474    1.0401    1.1656 C   0  0  0  0  0  0  0  0  0  0  0  0
    5.0378    0.9566   -0.2039 C   0  0  0  0  0  0  0  0  0  0  0  0
    4.0066    0.4694   -0.9676 C   0  0  0  0  0  0  0  0  0  0  0  0
    2.8040    0.0291   -0.4019 C   0  0  0  0  0  0  0  0  0  0  0  0
    1.7344   -0.4812   -1.2508 C   0  0  0  0  0  0  0  0  0  0  0  0
    0.5727   -0.9165   -0.8189 C   0  0  0  0  0  0  0  0  0  0  0  0
   -0.4790   -1.4220   -1.6957 C   0  0  0  0  0  0  0  0  0  0  0  0
   -0.3812   -1.5023   -3.0636 C   0  0  0  0  0  0  0  0  0  0  0  0
   -1.4470   -2.0017   -3.8080 C   0  0  0  0  0  0  0  0  0  0  0  0
   -2.6254   -2.4316   -3.2376 C   0  0  0  0  0  0  0  0  0  0  0  0
   -2.7201   -2.3497   -1.8653 C   0  0  0  0  0  0  0  0  0  0  0  0
   -1.6559   -1.8493   -1.1028 C   0  0  0  0  0  0  0  0  0  0  0  0
   -1.7606   -1.8142    0.3080 N   0  0  0  0  0  4  0  0  0  0  0  0
   -1.3280   -2.8065    1.1089 N   0  0  0  0  0  0  0  0  0  0  0  0
   -1.5719   -2.4762    2.2994 O   0  0  0  0  0  0  0  0  0  0  0  0
   -2.1574   -1.2933    2.3660 C   0  0  0  0  0  0  0  0  0  0  0  0
   -2.5291   -0.7017    3.5571 O   0  0  0  0  0  1  0  0  0  0  0  0
   -2.2848   -0.8507    1.0549 C   0  0  0  0  0  0  0  0  0  0  0  0
   -2.9089    0.4385    0.6884 C   0  0  0  0  0  0  0  0  0  0  0  0
   -2.9812    0.9133   -0.5965 C   0  0  0  0  0  0  0  0  0  0  0  0
   -3.6009    2.1401   -0.9054 C   0  0  0  0  0  0  0  0  0  0  0  0
   -4.1547    2.8976    0.0972 C   0  0  0  0  0  0  0  0  0  0  0  0
   -4.1006    2.4559    1.3870 C   0  0  0  0  0  0  0  0  0  0  0  0
   -3.4860    1.2478    1.6587 C   0  0  0  0  0  0  0  0  0  0  0  0
    2.7128    0.1125    0.9704 C   0  0  0  0  0  0  0  0  0  0  0  0
    3.7724    0.6117    1.7398 C   0  0  0  0  0  0  0  0  0  0  0  0
    5.8465    1.8365    2.9530 H   0  0  0  0  0  0  0  0  0  0  0  0
    6.9503    0.8463    1.9552 H   0  0  0  0  0  0  0  0  0  0  0  0
    6.4601    2.5080    1.4209 H   0  0  0  0  0  0  0  0  0  0  0  0
    5.9659    1.2920   -0.6907 H   0  0  0  0  0  0  0  0  0  0  0  0
    4.0990    0.4122   -2.0481 H   0  0  0  0  0  0  0  0  0  0  0  0
    1.9297   -0.4950   -2.3135 H   0  0  0  0  0  0  0  0  0  0  0  0
    0.4322   -0.8787    0.2632 H   0  0  0  0  0  0  0  0  0  0  0  0
    0.5334   -1.1728   -3.5538 H   0  0  0  0  0  0  0  0  0  0  0  0
   -1.3328   -2.0500   -4.8892 H   0  0  0  0  0  0  0  0  0  0  0  0
   -3.4247   -2.8116   -3.8591 H   0  0  0  0  0  0  0  0  0  0  0  0
   -3.6327   -2.6790   -1.3828 H   0  0  0  0  0  0  0  0  0  0  0  0
   -2.5572    0.3631   -1.4189 H   0  0  0  0  0  0  0  0  0  0  0  0
   -3.6442    2.4899   -1.9235 H   0  0  0  0  0  0  0  0  0  0  0  0
   -4.6341    3.8442   -0.1320 H   0  0  0  0  0  0  0  0  0  0  0  0
   -4.5370    3.0545    2.1699 H   0  0  0  0  0  0  0  0  0  0  0  0
   -3.4919    0.9770    2.6945 H   0  0  0  0  0  0  0  0  0  0  0  0
    1.8213   -0.2052    1.4891 H   0  0  0  0  0  0  0  0  0  0  0  0
    3.7045    0.6785    2.8151 H   0  0  0  0  0  0  0  0  0  0  0  0
  1  2  1  0
  2  3  2  0
  3  4  1  0
  4  5  2  0
  5  6  1  0
  6  7  2  0
  7  8  1  0
  8  9  2  0
  9 10  1  0
 10 11  2  0
 11 12  1  0
 12 13  2  0
 13 14  1  0
 14 15  2  0
 15 16  1  0
 16 17  1  0
 17 18  1  0
 17 19  2  0
 19 20  1  0
 20 21  2  0
 21 22  1  0
 22 23  2  0
 23 24  1  0
 24 25  2  0
  5 26  1  0
 26 27  2  0
 27  2  1  0
 13  8  1  0
 19 14  1  0
 25 20  1  0
  1 28  1  0
  1 29  1  0
  1 30  1  0
  3 31  1  0
  4 32  1  0
  6 33  1  0
  7 34  1  0
  9 35  1  0
 10 36  1  0
 11 37  1  0
 12 38  1  0
 21 39  1  0
 22 40  1  0
 23 41  1  0
 24 42  1  0
 25 43  1  0
 26 44  1  0
 27 45  1  0
M  CHG  2  14   1  18  -1
M  END
