
     RDKit          3D

 62 67  0  0  0  0  0  0  0  0999 V2000
    6.4957    2.6297   -3.3973 O   0  0  0  0  0  0  0  0  0  0  0  0
    5.8957    1.8994   -2.5741 C   0  0  0  0  0  0  0  0  0  0  0  0
    6.4937    0.8340   -1.9331 C   0  0  0  0  0  0  0  0  0  0  0  0
    5.8286    0.0366   -1.0305 C   0  0  0  0  0  0  0  0  0  0  0  0
    6.4736   -1.0872   -0.3597 C   0  0  0  0  0  0  0  0  0  0  0  0
    7.7755   -1.4464   -0.5608 C   0  0  0  0  0  0  0  0  0  0  0  0
    8.3417   -2.5406    0.1160 C   0  0  0  0  0  0  0  0  0  0  0  0
    7.5971   -3.2837    1.0039 C   0  0  0  0  0  0  0  0  0  0  0  0
    6.2834   -2.9207    1.2064 C   0  0  0  0  0  0  0  0  0  0  0  0
    5.7320   -1.8472    0.5409 C   0  0  0  0  0  0  0  0  0  0  0  0
    4.5740    0.3356   -0.7975 O   0  0  0  0  0  0  0  0  0  0  0  0
    3.9098    1.3229   -1.3496 C   0  0  0  0  0  0  0  0  0  0  0  0
    2.5079    1.5614   -1.0110 C   0  0  0  0  0  0  0  0  0  0  0  0
    1.7425    2.5621   -1.5344 C   0  0  0  0  0  0  0  0  0  0  0  0
    0.4006    2.7314   -1.1622 C   0  0  0  0  0  0  0  0  0  0  0  0
   -0.1954    1.8880   -0.2495 C   0  0  0  0  0  0  0  0  0  0  0  0
   -1.6001    2.0879    0.1555 C   0  0  0  0  0  0  0  0  0  0  0  0
   -2.1327    3.2447    0.5696 N   0  0  0  0  0  0  0  0  0  0  0  0
   -3.4269    3.0530    0.8405 C   0  0  0  0  0  0  0  0  0  0  0  0
   -4.4290    3.8969    1.2981 C   0  0  0  0  0  0  0  0  0  0  0  0
   -5.7201    3.5185    1.5276 C   0  0  0  0  0  0  0  0  0  0  0  0
   -6.0245    2.2064    1.2816 C   0  0  0  0  0  0  0  0  0  0  0  0
   -5.0425    1.3776    0.8324 C   0  0  0  0  0  0  0  0  0  0  0  0
   -3.7611    1.7495    0.6028 N   0  0  0  0  0  0  0  0  0  0  0  0
   -2.6423    1.1465    0.1787 C   0  0  0  0  0  0  0  0  0  0  0  0
   -2.4517   -0.1679   -0.2170 N   0  0  0  0  0  0  0  0  0  0  0  0
   -3.3041   -1.3147   -0.3170 C   0  0  0  0  0  0  0  0  0  0  0  0
   -4.4042   -1.2221   -1.3005 C   0  0  0  0  0  0  0  0  0  0  0  0
   -5.6115   -2.0509   -0.9865 C   0  0  0  0  0  0  0  0  0  0  0  0
   -5.1942   -3.2514   -0.1267 C   0  0  0  0  0  0  0  0  0  0  0  0
   -4.7314   -2.7459    1.2266 C   0  0  0  0  0  0  0  0  0  0  0  0
   -3.5955   -1.8033    1.0692 C   0  0  0  0  0  0  0  0  0  0  0  0
    0.5655    0.8755    0.2860 C   0  0  0  0  0  0  0  0  0  0  0  0
    1.8956    0.7225   -0.0954 C   0  0  0  0  0  0  0  0  0  0  0  0
    4.5544    2.1318   -2.2537 C   0  0  0  0  0  0  0  0  0  0  0  0
    7.5312    0.6316   -2.1623 H   0  0  0  0  0  0  0  0  0  0  0  0
    8.3920   -0.8914   -1.2469 H   0  0  0  0  0  0  0  0  0  0  0  0
    9.3738   -2.8097   -0.0561 H   0  0  0  0  0  0  0  0  0  0  0  0
    8.0100   -4.1374    1.5430 H   0  0  0  0  0  0  0  0  0  0  0  0
    5.7162   -3.5309    1.9187 H   0  0  0  0  0  0  0  0  0  0  0  0
    4.6968   -1.5695    0.7072 H   0  0  0  0  0  0  0  0  0  0  0  0
    2.1671    3.2400   -2.2473 H   0  0  0  0  0  0  0  0  0  0  0  0
   -0.2050    3.5242   -1.5771 H   0  0  0  0  0  0  0  0  0  0  0  0
   -4.1738    4.9432    1.4916 H   0  0  0  0  0  0  0  0  0  0  0  0
   -6.4945    4.1781    1.8830 H   0  0  0  0  0  0  0  0  0  0  0  0
   -7.0473    1.8572    1.4515 H   0  0  0  0  0  0  0  0  0  0  0  0
   -5.3203    0.3534    0.6645 H   0  0  0  0  0  0  0  0  0  0  0  0
   -1.4348   -0.4154   -0.5420 H   0  0  0  0  0  0  0  0  0  0  0  0
   -2.6072   -2.1435   -0.7900 H   0  0  0  0  0  0  0  0  0  0  0  0
   -4.7179   -0.1780   -1.5509 H   0  0  0  0  0  0  0  0  0  0  0  0
   -4.0589   -1.6017   -2.3275 H   0  0  0  0  0  0  0  0  0  0  0  0
   -6.3849   -1.4627   -0.4494 H   0  0  0  0  0  0  0  0  0  0  0  0
   -6.0480   -2.4907   -1.9092 H   0  0  0  0  0  0  0  0  0  0  0  0
   -4.3704   -3.7658   -0.6318 H   0  0  0  0  0  0  0  0  0  0  0  0
   -6.0593   -3.9198   -0.0598 H   0  0  0  0  0  0  0  0  0  0  0  0
   -4.5265   -3.5531    1.9279 H   0  0  0  0  0  0  0  0  0  0  0  0
   -5.5963   -2.1671    1.6538 H   0  0  0  0  0  0  0  0  0  0  0  0
   -2.6712   -2.3700    1.4012 H   0  0  0  0  0  0  0  0  0  0  0  0
   -3.6701   -0.9250    1.7496 H   0  0  0  0  0  0  0  0  0  0  0  0
    0.1622    0.1816    1.0242 H   0  0  0  0  0  0  0  0  0  0  0  0
    2.4911   -0.0797    0.3310 H   0  0  0  0  0  0  0  0  0  0  0  0
    4.0458    2.9719   -2.7452 H   0  0  0  0  0  0  0  0  0  0  0  0
  1  2  2  0
  2  3  1  0
  3  4  2  0
  4  5  1  0
  5  6  2  0
  6  7  1  0
  7  8  2  0
  8  9  1  0
  9 10  2  0
  4 11  1  0
 11 12  1  0
 12 13  1  0
 13 14  2  0
 14 15  1  0
 15 16  2  0
 16 17  1  0
 17 18  1  0
 18 19  2  0
 19 20  1  0
 20 21  2  0
 21 22  1  0
 22 23  2  0
 23 24  1  0
 24 25  1  0
 25 26  1  0
 26 27  1  0
 27 28  1  0
 28 29  1  0
 29 30  1  0
 30 31  1  0
 31 32  1  0
 16 33  1  0
 33 34  2  0
 12 35  2  0
 35  2  1  0
 10  5  1  0
 34 13  1  0
 25 17  2  0
 32 27  1  0
 24 19  1  0
  3 36  1  0
  6 37  1  0
  7 38  1  0
  8 39  1  0
  9 40  1  0
 10 41  1  0
 14 42  1  0
 15 43  1  0
 20 44  1  0
 21 45  1  0
 22 46  1  0
 23 47  1  0
 26 48  1  0
 27 49  1  0
 28 50  1  0
 28 51  1  0
 29 52  1  0
 29 53  1  0
 30 54  1  0
 30 55  1  0
 31 56  1  0
 31 57  1  0
 32 58  1  0
 32 59  1  0
 33 60  1  0
 34 61  1  0
 35 62  1  0
M  END
