
     RDKit          3D

 56 61  0  0  0  0  0  0  0  0999 V2000
    2.3662   -1.7457    3.4009 C   0  0  0  0  0  0  0  0  0  0  0  0
    2.8911   -1.1220    2.2711 O   0  0  0  0  0  0  0  0  0  0  0  0
    2.1226   -0.5963    1.2420 C   0  0  0  0  0  0  0  0  0  0  0  0
    0.7431   -0.6323    1.2218 C   0  0  0  0  0  0  0  0  0  0  0  0
   -0.0000   -0.1068    0.1949 C   0  0  0  0  0  0  0  0  0  0  0  0
   -1.4537   -0.1643    0.2103 C   0  0  0  0  0  0  0  0  0  0  0  0
   -2.2711    0.3280   -0.7596 N   0  0  0  0  0  0  0  0  0  0  0  0
   -3.5515    0.1048   -0.4244 C   0  0  0  0  0  0  0  0  0  0  0  0
   -4.7374    0.4032   -1.0560 C   0  0  0  0  0  0  0  0  0  0  0  0
   -4.7644    1.0539   -2.2716 C   0  0  0  0  0  0  0  0  0  0  0  0
   -5.9859    1.3229   -2.8508 C   0  0  0  0  0  0  0  0  0  0  0  0
   -7.1728    0.9544   -2.2387 C   0  0  0  0  0  0  0  0  0  0  0  0
   -7.0916    0.3215   -1.0530 N   0  0  0  0  0  0  0  0  0  0  0  0
   -5.9304    0.0339   -0.4428 C   0  0  0  0  0  0  0  0  0  0  0  0
   -5.9530   -0.6259    0.7865 C   0  0  0  0  0  0  0  0  0  0  0  0
   -7.1248   -0.9815    1.3757 N   0  0  0  0  0  0  0  0  0  0  0  0
   -7.1489   -1.6164    2.5587 C   0  0  0  0  0  0  0  0  0  0  0  0
   -5.9760   -1.9309    3.2195 C   0  0  0  0  0  0  0  0  0  0  0  0
   -4.7763   -1.5671    2.6167 C   0  0  0  0  0  0  0  0  0  0  0  0
   -4.7550   -0.9159    1.4032 C   0  0  0  0  0  0  0  0  0  0  0  0
   -3.5675   -0.5465    0.7895 C   0  0  0  0  0  0  0  0  0  0  0  0
   -2.2762   -0.6881    1.1352 N   0  0  0  0  0  0  0  0  0  0  0  0
    0.6551    0.4818   -0.8613 C   0  0  0  0  0  0  0  0  0  0  0  0
   -0.0894    1.0195   -1.9112 O   0  0  0  0  0  0  0  0  0  0  0  0
    0.5297    1.6378   -3.0245 C   0  0  0  0  0  0  0  0  0  0  0  0
    2.0440    0.5316   -0.8663 C   0  0  0  0  0  0  0  0  0  0  0  0
    2.7628    0.0064    0.1585 C   0  0  0  0  0  0  0  0  0  0  0  0
    4.2174    0.0538    0.1625 C   0  0  0  0  0  0  0  0  0  0  0  0
    4.9720    0.5810   -0.7727 C   0  0  0  0  0  0  0  0  0  0  0  0
    6.4250    0.6269   -0.7662 C   0  0  0  0  0  0  0  0  0  0  0  0
    7.2149    0.1269    0.2162 C   0  0  0  0  0  0  0  0  0  0  0  0
    8.6146    0.2012    0.1668 C   0  0  0  0  0  0  0  0  0  0  0  0
    9.1885    0.7859   -0.8867 N   0  0  0  0  0  0  0  0  0  0  0  0
    8.4510    1.2977   -1.8878 C   0  0  0  0  0  0  0  0  0  0  0  0
    7.0794    1.2262   -1.8417 C   0  0  0  0  0  0  0  0  0  0  0  0
    2.1876   -2.8213    3.2999 H   0  0  0  0  0  0  0  0  0  0  0  0
    1.4310   -1.2462    3.7646 H   0  0  0  0  0  0  0  0  0  0  0  0
    3.1169   -1.6256    4.2336 H   0  0  0  0  0  0  0  0  0  0  0  0
    0.2733   -1.1137    2.0899 H   0  0  0  0  0  0  0  0  0  0  0  0
   -3.8560    1.3540   -2.7738 H   0  0  0  0  0  0  0  0  0  0  0  0
   -6.0484    1.8360   -3.8119 H   0  0  0  0  0  0  0  0  0  0  0  0
   -8.1497    1.1635   -2.6909 H   0  0  0  0  0  0  0  0  0  0  0  0
   -8.0696   -1.9115    3.0509 H   0  0  0  0  0  0  0  0  0  0  0  0
   -6.0149   -2.4443    4.1749 H   0  0  0  0  0  0  0  0  0  0  0  0
   -3.8437   -1.7954    3.1017 H   0  0  0  0  0  0  0  0  0  0  0  0
   -1.9294   -1.1485    2.0159 H   0  0  0  0  0  0  0  0  0  0  0  0
    1.3050    2.3685   -2.7089 H   0  0  0  0  0  0  0  0  0  0  0  0
   -0.1747    2.1777   -3.6587 H   0  0  0  0  0  0  0  0  0  0  0  0
    1.0434    0.8404   -3.5986 H   0  0  0  0  0  0  0  0  0  0  0  0
    2.4694    1.0105   -1.7328 H   0  0  0  0  0  0  0  0  0  0  0  0
    4.7854   -0.3798    1.0071 H   0  0  0  0  0  0  0  0  0  0  0  0
    4.4404    1.0163   -1.6182 H   0  0  0  0  0  0  0  0  0  0  0  0
    6.7699   -0.3470    1.0714 H   0  0  0  0  0  0  0  0  0  0  0  0
    9.2213   -0.2116    0.9751 H   0  0  0  0  0  0  0  0  0  0  0  0
    8.8944    1.7762   -2.7515 H   0  0  0  0  0  0  0  0  0  0  0  0
    6.4967    1.6422   -2.6543 H   0  0  0  0  0  0  0  0  0  0  0  0
  1  2  1  0
  2  3  1  0
  3  4  2  0
  4  5  1  0
  5  6  1  0
  6  7  2  0
  7  8  1  0
  8  9  2  0
  9 10  1  0
 10 11  2  0
 11 12  1  0
 12 13  2  0
 13 14  1  0
 14 15  2  0
 15 16  1  0
 16 17  2  0
 17 18  1  0
 18 19  2  0
 19 20  1  0
 20 21  2  0
 21 22  1  0
  5 23  2  0
 23 24  1  0
 24 25  1  0
 23 26  1  0
 26 27  2  0
 27 28  1  0
 28 29  2  0
 29 30  1  0
 30 31  2  0
 31 32  1  0
 32 33  2  0
 33 34  1  0
 34 35  2  0
 27  3  1  0
 35 30  1  0
 22  6  1  0
 21  8  1  0
 14  9  1  0
 20 15  1  0
  1 36  1  0
  1 37  1  0
  1 38  1  0
  4 39  1  0
 10 40  1  0
 11 41  1  0
 12 42  1  0
 17 43  1  0
 18 44  1  0
 19 45  1  0
 22 46  1  0
 25 47  1  0
 25 48  1  0
 25 49  1  0
 26 50  1  0
 28 51  1  0
 29 52  1  0
 31 53  1  0
 32 54  1  0
 34 55  1  0
 35 56  1  0
M  END
