
     RDKit          3D

 33 35  0  0  0  0  0  0  0  0999 V2000
    3.9773    2.3408    0.6129 N   0  0  0  0  0  0  0  0  0  0  0  0
    3.5518    1.0201    0.3651 C   0  0  0  0  0  0  0  0  0  0  0  0
    2.2448    0.7989    0.1747 N   0  0  0  0  0  0  0  0  0  0  0  0
    1.7235   -0.4212   -0.0697 C   0  0  0  0  0  0  0  0  0  0  0  0
    2.5681   -1.5039   -0.1291 C   0  0  0  0  0  0  0  0  0  0  0  0
    1.7957   -2.5619   -0.3796 N   0  0  0  0  0  0  0  0  0  0  0  0
    0.5092   -2.1333   -0.4709 C   0  0  0  0  0  0  0  0  0  0  0  0
   -0.4657   -2.8835   -0.7000 O   0  0  0  0  0  0  0  0  0  0  0  0
    0.4409   -0.8105   -0.2822 N   0  0  0  0  0  0  0  0  0  0  0  0
   -0.6879    0.0547   -0.2895 C   0  0  1  0  0  0  0  0  0  0  0  0
   -1.5821   -0.1043   -1.4911 C   0  0  0  0  0  0  0  0  0  0  0  0
   -2.8748    0.5249   -0.9876 C   0  0  2  0  0  0  0  0  0  0  0  0
   -3.1113    1.7436   -1.6156 O   0  0  0  0  0  0  0  0  0  0  0  0
   -2.5769    0.7468    0.4801 C   0  0  1  0  0  0  0  0  0  0  0  0
   -3.8063    0.5168    1.3319 C   0  0  0  0  0  0  0  0  0  0  0  0
   -4.3477   -0.7438    1.1161 O   0  0  0  0  0  0  0  0  0  0  0  0
   -1.5786   -0.1866    0.7581 O   0  0  0  0  0  0  0  0  0  0  0  0
    3.9178   -1.2706    0.0683 C   0  0  0  0  0  0  0  0  0  0  0  0
    4.6913   -2.2634    0.0138 O   0  0  0  0  0  0  0  0  0  0  0  0
    4.3830   -0.0322    0.3086 N   0  0  0  0  0  0  0  0  0  0  0  0
    4.1430    2.9752   -0.1843 H   0  0  0  0  0  0  0  0  0  0  0  0
    4.1086    2.6233    1.6183 H   0  0  0  0  0  0  0  0  0  0  0  0
    2.1498   -3.5416   -0.4827 H   0  0  0  0  0  0  0  0  0  0  0  0
   -0.3885    1.1077   -0.2247 H   0  0  0  0  0  0  0  0  0  0  0  0
   -1.2347    0.4541   -2.3753 H   0  0  0  0  0  0  0  0  0  0  0  0
   -1.7169   -1.1806   -1.6995 H   0  0  0  0  0  0  0  0  0  0  0  0
   -3.7313   -0.1631   -1.0519 H   0  0  0  0  0  0  0  0  0  0  0  0
   -3.2890    2.4170   -0.9116 H   0  0  0  0  0  0  0  0  0  0  0  0
   -2.1308    1.7442    0.6632 H   0  0  0  0  0  0  0  0  0  0  0  0
   -4.5232    1.3405    1.1397 H   0  0  0  0  0  0  0  0  0  0  0  0
   -3.5103    0.5958    2.3978 H   0  0  0  0  0  0  0  0  0  0  0  0
   -4.0524   -1.3529    1.8382 H   0  0  0  0  0  0  0  0  0  0  0  0
    5.4034    0.1491    0.4586 H   0  0  0  0  0  0  0  0  0  0  0  0
  1  2  1  0
  2  3  2  0
  3  4  1  0
  4  5  2  0
  5  6  1  0
  6  7  1  0
  7  8  2  0
  7  9  1  0
  9 10  1  0
 10 11  1  0
 11 12  1  0
 12 13  1  0
 12 14  1  0
 14 15  1  0
 15 16  1  0
 14 17  1  0
  5 18  1  0
 18 19  2  0
 18 20  1  0
 20  2  1  0
  9  4  1  0
 17 10  1  0
  1 21  1  0
  1 22  1  0
  6 23  1  0
 10 24  1  1
 11 25  1  0
 11 26  1  0
 12 27  1  1
 13 28  1  0
 14 29  1  6
 15 30  1  0
 15 31  1  0
 16 32  1  0
 20 33  1  0
M  END
