
     RDKit          3D

 35 37  0  0  0  0  0  0  0  0999 V2000
   -3.8202   -1.2774    1.7520 C   0  0  0  0  0  0  0  0  0  0  0  0
   -2.6936   -0.9275    1.2578 O   0  0  0  0  0  0  0  0  0  0  0  0
   -1.5678   -0.5870    0.7660 C   0  0  0  0  0  0  0  0  0  0  0  0
   -0.5047   -1.4831    0.5527 C   0  0  0  0  0  0  0  0  0  0  0  0
    0.6709   -1.0540    0.0025 C   0  0  0  0  0  0  0  0  0  0  0  0
    0.8108    0.2717   -0.3478 C   0  0  0  0  0  0  0  0  0  0  0  0
   -0.2209    1.1773   -0.1471 C   0  0  0  0  0  0  0  0  0  0  0  0
   -1.3885    0.7953    0.3980 C   0  0  0  0  0  0  0  0  0  0  0  0
   -2.4667    1.6477    0.8167 C   0  0  0  0  0  0  0  0  0  0  0  0
   -3.2939    2.4499    0.3993 C   0  0  0  0  0  0  0  0  0  0  0  0
   -3.6208    3.0034   -0.8544 C   0  0  0  0  0  0  0  0  0  0  0  0
   -3.8956    3.4709   -1.8677 N   0  0  0  0  0  0  0  0  0  0  0  0
   -4.3385    3.0110    1.4643 C   0  0  0  0  0  0  0  0  0  0  0  0
   -5.0263    3.4005    2.1726 N   0  0  0  0  0  0  0  0  0  0  0  0
    2.0721    0.4287   -0.8501 C   0  0  0  0  0  0  0  0  0  0  0  0
    2.7720    1.5088   -1.3555 C   0  0  0  0  0  0  0  0  0  0  0  0
    4.0666    1.4083   -1.8035 C   0  0  0  0  0  0  0  0  0  0  0  0
    4.6600    0.1332   -1.7239 C   0  0  0  0  0  0  0  0  0  0  0  0
    3.9643   -0.9395   -1.2226 C   0  0  0  0  0  0  0  0  0  0  0  0
    2.6743   -0.8398   -0.7777 C   0  0  0  0  0  0  0  0  0  0  0  0
    1.8335   -1.7287   -0.2655 N   0  0  0  0  0  0  0  0  0  0  0  0
    2.0558   -3.1287    0.0013 C   0  0  0  0  0  0  0  0  0  0  0  0
   -4.7229   -0.8642    1.1039 H   0  0  0  0  0  0  0  0  0  0  0  0
   -4.1002   -2.3974    1.6865 H   0  0  0  0  0  0  0  0  0  0  0  0
   -4.1112   -1.0052    2.8154 H   0  0  0  0  0  0  0  0  0  0  0  0
   -0.5737   -2.5383    0.8087 H   0  0  0  0  0  0  0  0  0  0  0  0
   -0.0774    2.2302   -0.4420 H   0  0  0  0  0  0  0  0  0  0  0  0
   -2.6246    1.5257    2.0164 H   0  0  0  0  0  0  0  0  0  0  0  0
    2.2655    2.4919   -1.4094 H   0  0  0  0  0  0  0  0  0  0  0  0
    4.6681    2.2152   -2.2043 H   0  0  0  0  0  0  0  0  0  0  0  0
    5.6890    0.0031   -2.0597 H   0  0  0  0  0  0  0  0  0  0  0  0
    4.4306   -1.9321   -1.1541 H   0  0  0  0  0  0  0  0  0  0  0  0
    1.1257   -3.7164    0.1037 H   0  0  0  0  0  0  0  0  0  0  0  0
    2.5371   -3.1362    1.0513 H   0  0  0  0  0  0  0  0  0  0  0  0
    2.7511   -3.6172   -0.6836 H   0  0  0  0  0  0  0  0  0  0  0  0
  1  2  1  0
  2  3  1  0
  3  4  2  0
  4  5  1  0
  5  6  2  0
  6  7  1  0
  7  8  2  0
  8  9  1  0
  9 10  2  3
 10 11  1  0
 11 12  3  0
 10 13  1  0
 13 14  3  0
  6 15  1  0
 15 16  2  0
 16 17  1  0
 17 18  2  0
 18 19  1  0
 19 20  2  0
 20 21  1  0
 21 22  1  0
  8  3  1  0
 20 15  1  0
 21  5  1  0
  1 23  1  0
  1 24  1  0
  1 25  1  0
  4 26  1  0
  7 27  1  0
  9 28  1  0
 16 29  1  0
 17 30  1  0
 18 31  1  0
 19 32  1  0
 22 33  1  0
 22 34  1  0
 22 35  1  0
M  END
