
     RDKit          3D

 74 81  0  0  0  0  0  0  0  0999 V2000
   10.5967   -3.2949    0.4314 C   0  0  0  0  0  0  0  0  0  0  0  0
    9.8591   -3.2364   -0.7281 C   0  0  0  0  0  0  0  0  0  0  0  0
    8.7320   -2.4534   -0.7485 C   0  0  0  0  0  0  0  0  0  0  0  0
    8.2896   -1.7119    0.3400 C   0  0  0  0  0  0  0  0  0  0  0  0
    7.0795   -0.9071    0.2450 C   0  0  0  0  0  0  0  0  0  0  0  0
    5.7775   -1.3070    0.2770 N   0  0  0  0  0  0  0  0  0  0  0  0
    4.9773   -0.2344    0.1604 C   0  0  0  0  0  0  0  0  0  0  0  0
    3.5204   -0.1846    0.1447 C   0  0  0  0  0  0  0  0  0  0  0  0
    2.7509   -1.3216    0.2499 C   0  0  0  0  0  0  0  0  0  0  0  0
    1.3746   -1.3037    0.2374 C   0  0  0  0  0  0  0  0  0  0  0  0
    0.6988   -0.1135    0.1159 C   0  0  0  0  0  0  0  0  0  0  0  0
   -0.7502   -0.0771    0.0979 C   0  0  0  0  0  0  0  0  0  0  0  0
   -1.4218    1.0146    0.6068 C   0  0  0  0  0  0  0  0  0  0  0  0
   -2.8072    1.1060    0.6140 C   0  0  0  0  0  0  0  0  0  0  0  0
   -3.5118    0.0517    0.0861 C   0  0  0  0  0  0  0  0  0  0  0  0
   -4.9662    0.0506    0.0469 C   0  0  0  0  0  0  0  0  0  0  0  0
   -5.7357    1.0617    0.5225 N   0  0  0  0  0  0  0  0  0  0  0  0
   -7.0234    0.7369    0.3289 C   0  0  0  0  0  0  0  0  0  0  0  0
   -8.1707    1.5139    0.6796 C   0  0  0  0  0  0  0  0  0  0  0  0
   -9.0975    1.0389    1.5993 C   0  0  0  0  0  0  0  0  0  0  0  0
  -10.1874    1.8212    1.9073 C   0  0  0  0  0  0  0  0  0  0  0  0
  -10.3964    3.0600    1.3385 C   0  0  0  0  0  0  0  0  0  0  0  0
   -9.4801    3.5415    0.4225 C   0  0  0  0  0  0  0  0  0  0  0  0
   -8.3985    2.7708    0.1134 C   0  0  0  0  0  0  0  0  0  0  0  0
   -7.0032   -0.4965   -0.2756 C   0  0  0  0  0  0  0  0  0  0  0  0
   -8.1972   -1.2313   -0.6678 C   0  0  0  0  0  0  0  0  0  0  0  0
   -9.0395   -0.6848   -1.6145 C   0  0  0  0  0  0  0  0  0  0  0  0
  -10.1786   -1.3532   -2.0113 C   0  0  0  0  0  0  0  0  0  0  0  0
  -10.5298   -2.5809   -1.4927 C   0  0  0  0  0  0  0  0  0  0  0  0
   -9.6847   -3.1246   -0.5461 C   0  0  0  0  0  0  0  0  0  0  0  0
   -8.5413   -2.4597   -0.1438 C   0  0  0  0  0  0  0  0  0  0  0  0
   -5.7481   -0.8887   -0.4346 O   0  0  0  0  0  0  0  0  0  0  0  0
   -2.8506   -1.0550   -0.4303 C   0  0  0  0  0  0  0  0  0  0  0  0
   -1.4881   -1.1224   -0.4264 C   0  0  0  0  0  0  0  0  0  0  0  0
    1.4519    1.0373    0.0096 C   0  0  0  0  0  0  0  0  0  0  0  0
    2.8377    1.0068    0.0231 C   0  0  0  0  0  0  0  0  0  0  0  0
    5.7475    0.8126    0.0579 O   0  0  0  0  0  0  0  0  0  0  0  0
    7.0168    0.4551    0.1039 C   0  0  0  0  0  0  0  0  0  0  0  0
    8.1425    1.3906    0.0149 C   0  0  0  0  0  0  0  0  0  0  0  0
    9.0135    1.6277    1.0516 C   0  0  0  0  0  0  0  0  0  0  0  0
   10.0755    2.5022    0.9737 C   0  0  0  0  0  0  0  0  0  0  0  0
   10.2597    3.1690   -0.2198 C   0  0  0  0  0  0  0  0  0  0  0  0
    9.4175    2.9603   -1.2691 C   0  0  0  0  0  0  0  0  0  0  0  0
    8.3638    2.0862   -1.1771 C   0  0  0  0  0  0  0  0  0  0  0  0
    9.0451   -1.7893    1.4843 C   0  0  0  0  0  0  0  0  0  0  0  0
   10.1878   -2.5711    1.5351 C   0  0  0  0  0  0  0  0  0  0  0  0
   11.4942   -3.9155    0.4562 H   0  0  0  0  0  0  0  0  0  0  0  0
   10.1080   -3.7691   -1.6322 H   0  0  0  0  0  0  0  0  0  0  0  0
    8.1293   -2.3856   -1.6463 H   0  0  0  0  0  0  0  0  0  0  0  0
    3.2530   -2.2680    0.3464 H   0  0  0  0  0  0  0  0  0  0  0  0
    0.8454   -2.2605    0.3267 H   0  0  0  0  0  0  0  0  0  0  0  0
   -0.8980    1.8740    1.0346 H   0  0  0  0  0  0  0  0  0  0  0  0
   -3.3006    1.9747    1.0209 H   0  0  0  0  0  0  0  0  0  0  0  0
   -8.9318    0.0697    2.0433 H   0  0  0  0  0  0  0  0  0  0  0  0
  -10.9199    1.4593    2.6254 H   0  0  0  0  0  0  0  0  0  0  0  0
  -11.2615    3.6643    1.5942 H   0  0  0  0  0  0  0  0  0  0  0  0
   -9.6103    4.5141   -0.0489 H   0  0  0  0  0  0  0  0  0  0  0  0
   -7.6911    3.1746   -0.6124 H   0  0  0  0  0  0  0  0  0  0  0  0
   -8.7764    0.2812   -2.0317 H   0  0  0  0  0  0  0  0  0  0  0  0
  -10.8509   -0.9365   -2.7548 H   0  0  0  0  0  0  0  0  0  0  0  0
  -11.4221   -3.1087   -1.8011 H   0  0  0  0  0  0  0  0  0  0  0  0
   -9.8992   -4.0757   -0.1039 H   0  0  0  0  0  0  0  0  0  0  0  0
   -7.8692   -2.8729    0.5976 H   0  0  0  0  0  0  0  0  0  0  0  0
   -3.4123   -1.8979   -0.8527 H   0  0  0  0  0  0  0  0  0  0  0  0
   -0.9177   -1.9595   -0.8148 H   0  0  0  0  0  0  0  0  0  0  0  0
    0.9902    2.0198   -0.0895 H   0  0  0  0  0  0  0  0  0  0  0  0
    3.4308    1.9190   -0.0614 H   0  0  0  0  0  0  0  0  0  0  0  0
    8.8704    1.1093    1.9888 H   0  0  0  0  0  0  0  0  0  0  0  0
   10.7619    2.6964    1.7735 H   0  0  0  0  0  0  0  0  0  0  0  0
   11.0834    3.8769   -0.3470 H   0  0  0  0  0  0  0  0  0  0  0  0
    9.5579    3.4750   -2.1965 H   0  0  0  0  0  0  0  0  0  0  0  0
    7.6867    1.9087   -1.9958 H   0  0  0  0  0  0  0  0  0  0  0  0
    8.7528   -1.2355    2.3787 H   0  0  0  0  0  0  0  0  0  0  0  0
   10.7890   -2.6442    2.4147 H   0  0  0  0  0  0  0  0  0  0  0  0
  1  2  2  0
  2  3  1  0
  3  4  2  0
  4  5  1  0
  5  6  1  0
  6  7  2  0
  7  8  1  0
  8  9  2  0
  9 10  1  0
 10 11  2  0
 11 12  1  0
 12 13  2  0
 13 14  1  0
 14 15  2  0
 15 16  1  0
 16 17  2  0
 17 18  1  0
 18 19  1  0
 19 20  2  0
 20 21  1  0
 21 22  2  0
 22 23  1  0
 23 24  2  0
 18 25  2  0
 25 26  1  0
 26 27  2  0
 27 28  1  0
 28 29  2  0
 29 30  1  0
 30 31  2  0
 25 32  1  0
 15 33  1  0
 33 34  2  0
 11 35  1  0
 35 36  2  0
  7 37  1  0
 37 38  1  0
 38 39  1  0
 39 40  2  0
 40 41  1  0
 41 42  2  0
 42 43  1  0
 43 44  2  0
  4 45  1  0
 45 46  2  0
 46  1  1  0
 38  5  2  0
 44 39  1  0
 36  8  1  0
 34 12  1  0
 32 16  1  0
 24 19  1  0
 31 26  1  0
  1 47  1  0
  2 48  1  0
  3 49  1  0
  9 50  1  0
 10 51  1  0
 13 52  1  0
 14 53  1  0
 20 54  1  0
 21 55  1  0
 22 56  1  0
 23 57  1  0
 24 58  1  0
 27 59  1  0
 28 60  1  0
 29 61  1  0
 30 62  1  0
 31 63  1  0
 33 64  1  0
 34 65  1  0
 35 66  1  0
 36 67  1  0
 40 68  1  0
 41 69  1  0
 42 70  1  0
 43 71  1  0
 44 72  1  0
 45 73  1  0
 46 74  1  0
M  END
