
     RDKit          3D

 18 19  0  0  0  0  0  0  0  0999 V2000
    1.6712    1.3938    4.2607 N   0  0  0  0  0  0  0  0  0  0  0  0
    1.1749    0.9565    3.3098 C   0  0  0  0  0  0  0  0  0  0  0  0
    0.5798    0.3999    2.1279 C   0  0  0  0  0  0  0  0  0  0  0  0
   -0.2909   -0.6829    2.2164 C   0  0  0  0  0  0  0  0  0  0  0  0
   -0.8495   -1.2116    1.1487 O   0  0  0  0  0  0  0  0  0  0  0  0
   -0.6114   -0.7387   -0.0726 C   0  0  0  0  0  0  0  0  0  0  0  0
   -1.2092   -1.3089   -1.1852 C   0  0  0  0  0  0  0  0  0  0  0  0
   -0.9634   -0.8188   -2.4586 C   0  0  0  0  0  0  0  0  0  0  0  0
   -0.1135    0.2526   -2.6426 C   0  0  0  0  0  0  0  0  0  0  0  0
    0.4938    0.8370   -1.5474 C   0  0  0  0  0  0  0  0  0  0  0  0
    0.2419    0.3386   -0.2680 C   0  0  0  0  0  0  0  0  0  0  0  0
    0.8234    0.8866    0.8585 C   0  0  0  0  0  0  0  0  0  0  0  0
    1.6004    1.8618    0.7200 O   0  0  0  0  0  0  0  0  0  0  0  0
   -0.4943   -1.0809    3.2183 H   0  0  0  0  0  0  0  0  0  0  0  0
   -1.8718   -2.1465   -1.0261 H   0  0  0  0  0  0  0  0  0  0  0  0
   -1.4207   -1.2507   -3.3388 H   0  0  0  0  0  0  0  0  0  0  0  0
    0.0749    0.6335   -3.6539 H   0  0  0  0  0  0  0  0  0  0  0  0
    1.1643    1.6785   -1.6670 H   0  0  0  0  0  0  0  0  0  0  0  0
  1  2  3  0
  2  3  1  0
  3  4  2  0
  4  5  1  0
  5  6  1  0
  6  7  2  0
  7  8  1  0
  8  9  2  0
  9 10  1  0
 10 11  2  0
 11 12  1  0
 12 13  2  0
 12  3  1  0
 11  6  1  0
  4 14  1  0
  7 15  1  0
  8 16  1  0
  9 17  1  0
 10 18  1  0
M  END
