
     RDKit          3D

 72 75  0  0  0  0  0  0  0  0999 V2000
  -12.3824    0.3471   -0.7982 C   0  0  0  0  0  0  0  0  0  0  0  0
  -11.3774    1.3267   -0.2378 C   0  0  0  0  0  0  0  0  0  0  0  0
  -10.5937    0.8126    0.8441 N   0  0  0  0  0  0  0  0  0  0  0  0
  -11.0765    0.4989    2.1526 C   0  0  0  0  0  0  0  0  0  0  0  0
  -11.9960   -0.6916    2.2227 C   0  0  0  0  0  0  0  0  0  0  0  0
   -9.1856    0.5868    0.5994 C   0  0  0  0  0  0  0  0  0  0  0  0
   -8.8762   -0.4691   -0.2193 C   0  0  0  0  0  0  0  0  0  0  0  0
   -7.5402   -0.7286   -0.4604 C   0  0  0  0  0  0  0  0  0  0  0  0
   -6.5320    0.0158    0.0776 C   0  0  0  0  0  0  0  0  0  0  0  0
   -5.1283   -0.2528   -0.1812 C   0  0  0  0  0  0  0  0  0  0  0  0
   -4.6763   -1.2042   -0.9694 C   0  0  0  0  0  0  0  0  0  0  0  0
   -3.2291   -1.4135   -1.1803 C   0  0  0  0  0  0  0  0  0  0  0  0
   -2.6241   -2.3371   -1.9892 C   0  0  0  0  0  0  0  0  0  0  0  0
   -1.2912   -2.3476   -2.0232 C   0  0  0  0  0  0  0  0  0  0  0  0
   -0.6336   -1.4358   -1.2477 C   0  0  0  0  0  0  0  0  0  0  0  0
    0.8325   -1.2597   -1.1314 C   0  0  0  0  0  0  0  0  0  0  0  0
    1.8088   -1.9400   -1.8091 C   0  0  0  0  0  0  0  0  0  0  0  0
    3.0764   -1.6010   -1.5411 C   0  0  0  0  0  0  0  0  0  0  0  0
    3.2874   -0.6137   -0.6212 C   0  0  0  0  0  0  0  0  0  0  0  0
    4.5901   -0.0750   -0.1644 C   0  0  0  0  0  0  0  0  0  0  0  0
    5.7235   -0.5184   -0.6410 C   0  0  0  0  0  0  0  0  0  0  0  0
    7.0390   -0.0447   -0.2462 C   0  0  0  0  0  0  0  0  0  0  0  0
    7.2771    0.9223    0.6923 C   0  0  0  0  0  0  0  0  0  0  0  0
    8.5465    1.3305    1.0236 C   0  0  0  0  0  0  0  0  0  0  0  0
    9.6139    0.7521    0.3943 C   0  0  0  0  0  0  0  0  0  0  0  0
   10.9713    1.0840    0.6545 N   0  0  0  0  0  0  0  0  0  0  0  0
   11.5962    2.1639   -0.0630 C   0  0  0  0  0  0  0  0  0  0  0  0
   10.6515    2.8447   -1.0157 C   0  0  0  0  0  0  0  0  0  0  0  0
   11.6938    0.3185    1.6296 C   0  0  0  0  0  0  0  0  0  0  0  0
   10.8349   -0.7529    2.2648 C   0  0  0  0  0  0  0  0  0  0  0  0
    9.4278   -0.2380   -0.5691 C   0  0  0  0  0  0  0  0  0  0  0  0
    8.1581   -0.6156   -0.8699 C   0  0  0  0  0  0  0  0  0  0  0  0
    1.7038   -0.1821   -0.1527 S   0  0  0  0  0  0  0  0  0  0  0  0
   -1.8961   -0.5863   -0.4900 S   0  0  0  0  0  0  0  0  0  0  0  0
   -6.8635    1.0758    0.9003 C   0  0  0  0  0  0  0  0  0  0  0  0
   -8.1976    1.3550    1.1567 C   0  0  0  0  0  0  0  0  0  0  0  0
  -13.4031    0.5071   -0.4304 H   0  0  0  0  0  0  0  0  0  0  0  0
  -12.4145    0.5020   -1.9045 H   0  0  0  0  0  0  0  0  0  0  0  0
  -12.0558   -0.7146   -0.6730 H   0  0  0  0  0  0  0  0  0  0  0  0
  -10.7244    1.6617   -1.0455 H   0  0  0  0  0  0  0  0  0  0  0  0
  -11.9780    2.2299    0.0681 H   0  0  0  0  0  0  0  0  0  0  0  0
  -10.2177    0.2491    2.8399 H   0  0  0  0  0  0  0  0  0  0  0  0
  -11.5758    1.3687    2.6397 H   0  0  0  0  0  0  0  0  0  0  0  0
  -12.3362   -0.7445    3.3018 H   0  0  0  0  0  0  0  0  0  0  0  0
  -12.8630   -0.6600    1.5713 H   0  0  0  0  0  0  0  0  0  0  0  0
  -11.3555   -1.6025    2.1085 H   0  0  0  0  0  0  0  0  0  0  0  0
   -9.6178   -1.1117   -0.6907 H   0  0  0  0  0  0  0  0  0  0  0  0
   -7.3206   -1.5643   -1.1066 H   0  0  0  0  0  0  0  0  0  0  0  0
   -4.3369    0.3570    0.2912 H   0  0  0  0  0  0  0  0  0  0  0  0
   -5.3652   -1.8414   -1.4729 H   0  0  0  0  0  0  0  0  0  0  0  0
   -3.2713   -3.0306   -2.5774 H   0  0  0  0  0  0  0  0  0  0  0  0
   -0.7091   -3.0602   -2.6483 H   0  0  0  0  0  0  0  0  0  0  0  0
    1.5005   -2.7270   -2.5356 H   0  0  0  0  0  0  0  0  0  0  0  0
    3.9334   -2.0943   -2.0405 H   0  0  0  0  0  0  0  0  0  0  0  0
    4.6091    0.7031    0.5812 H   0  0  0  0  0  0  0  0  0  0  0  0
    5.6550   -1.3091   -1.3971 H   0  0  0  0  0  0  0  0  0  0  0  0
    6.4314    1.3775    1.1878 H   0  0  0  0  0  0  0  0  0  0  0  0
    8.7423    2.0964    1.7659 H   0  0  0  0  0  0  0  0  0  0  0  0
   11.9441    2.9147    0.6857 H   0  0  0  0  0  0  0  0  0  0  0  0
   12.4898    1.8164   -0.6345 H   0  0  0  0  0  0  0  0  0  0  0  0
   11.1542    3.7858   -1.3494 H   0  0  0  0  0  0  0  0  0  0  0  0
    9.7203    3.1291   -0.4841 H   0  0  0  0  0  0  0  0  0  0  0  0
   10.3747    2.2244   -1.8728 H   0  0  0  0  0  0  0  0  0  0  0  0
   12.5655   -0.2037    1.1346 H   0  0  0  0  0  0  0  0  0  0  0  0
   12.0586    0.9956    2.4154 H   0  0  0  0  0  0  0  0  0  0  0  0
   11.4962   -1.3782    2.9164 H   0  0  0  0  0  0  0  0  0  0  0  0
   10.3796   -1.3992    1.5049 H   0  0  0  0  0  0  0  0  0  0  0  0
   10.0461   -0.3419    2.9039 H   0  0  0  0  0  0  0  0  0  0  0  0
   10.2494   -0.7155   -1.0826 H   0  0  0  0  0  0  0  0  0  0  0  0
    7.9959   -1.3764   -1.6104 H   0  0  0  0  0  0  0  0  0  0  0  0
   -6.0755    1.6556    1.3193 H   0  0  0  0  0  0  0  0  0  0  0  0
   -8.4587    2.1740    1.7899 H   0  0  0  0  0  0  0  0  0  0  0  0
  1  2  1  0
  2  3  1  0
  3  4  1  0
  4  5  1  0
  3  6  1  0
  6  7  2  0
  7  8  1  0
  8  9  2  0
  9 10  1  0
 10 11  2  0
 11 12  1  0
 12 13  2  0
 13 14  1  0
 14 15  2  0
 15 16  1  0
 16 17  2  0
 17 18  1  0
 18 19  2  0
 19 20  1  0
 20 21  2  0
 21 22  1  0
 22 23  2  0
 23 24  1  0
 24 25  2  0
 25 26  1  0
 26 27  1  0
 27 28  1  0
 26 29  1  0
 29 30  1  0
 25 31  1  0
 31 32  2  0
 19 33  1  0
 15 34  1  0
  9 35  1  0
 35 36  2  0
 36  6  1  0
 34 12  1  0
 33 16  1  0
 32 22  1  0
  1 37  1  0
  1 38  1  0
  1 39  1  0
  2 40  1  0
  2 41  1  0
  4 42  1  0
  4 43  1  0
  5 44  1  0
  5 45  1  0
  5 46  1  0
  7 47  1  0
  8 48  1  0
 10 49  1  0
 11 50  1  0
 13 51  1  0
 14 52  1  0
 17 53  1  0
 18 54  1  0
 20 55  1  0
 21 56  1  0
 23 57  1  0
 24 58  1  0
 27 59  1  0
 27 60  1  0
 28 61  1  0
 28 62  1  0
 28 63  1  0
 29 64  1  0
 29 65  1  0
 30 66  1  0
 30 67  1  0
 30 68  1  0
 31 69  1  0
 32 70  1  0
 35 71  1  0
 36 72  1  0
M  END
