
     RDKit          3D

 76 82  0  0  0  0  0  0  0  0999 V2000
   -7.8284   -2.3744    1.0078 C   0  0  0  0  0  0  0  0  0  0  0  0
   -6.9643   -1.3611    1.6968 C   0  0  0  0  0  0  0  0  0  0  0  0
   -5.9932   -0.7190    0.7725 C   0  0  0  0  0  0  0  0  0  0  0  0
   -6.2775    0.4318    0.0631 C   0  0  0  0  0  0  0  0  0  0  0  0
   -5.3492    1.0080   -0.7929 C   0  0  0  0  0  0  0  0  0  0  0  0
   -5.6651    2.2524   -1.5560 C   0  0  0  0  0  0  0  0  0  0  0  0
   -5.2957    3.4910   -0.7995 C   0  0  0  0  0  0  0  0  0  0  0  0
   -4.1019    0.4443   -0.9638 C   0  0  0  0  0  0  0  0  0  0  0  0
   -3.8018   -0.7120   -0.2577 C   0  0  0  0  0  0  0  0  0  0  0  0
   -2.5269   -1.2708   -0.4450 N   0  0  0  0  0  0  0  0  0  0  0  0
   -2.2008   -2.5172   -0.8500 C   0  0  0  0  0  0  0  0  0  0  0  0
   -3.0206   -3.5846   -1.1911 C   0  0  0  0  0  0  0  0  0  0  0  0
   -2.4202   -4.7664   -1.5766 C   0  0  0  0  0  0  0  0  0  0  0  0
   -1.0461   -4.8775   -1.6196 C   0  0  0  0  0  0  0  0  0  0  0  0
   -0.2184   -3.8069   -1.2774 C   0  0  0  0  0  0  0  0  0  0  0  0
   -0.8084   -2.6316   -0.8942 C   0  0  0  0  0  0  0  0  0  0  0  0
   -0.2902   -1.4271   -0.5071 C   0  0  0  0  0  0  0  0  0  0  0  0
    1.0170   -0.9578   -0.3619 C   0  0  0  0  0  0  0  0  0  0  0  0
    1.2503    0.3312    0.0540 C   0  0  0  0  0  0  0  0  0  0  0  0
    0.1608    1.1651    0.3294 C   0  0  0  0  0  0  0  0  0  0  0  0
   -1.1226    0.6840    0.1803 C   0  0  0  0  0  0  0  0  0  0  0  0
   -1.3694   -0.6182   -0.2398 C   0  0  0  0  0  0  0  0  0  0  0  0
    0.6829    2.3830    0.7208 C   0  0  0  0  0  0  0  0  0  0  0  0
    0.0349    3.5384    1.0980 C   0  0  0  0  0  0  0  0  0  0  0  0
    0.8459    4.6023    1.4381 C   0  0  0  0  0  0  0  0  0  0  0  0
    2.2232    4.5258    1.4063 C   0  0  0  0  0  0  0  0  0  0  0  0
    2.8175    3.3451    1.0211 C   0  0  0  0  0  0  0  0  0  0  0  0
    2.0555    2.2536    0.6719 C   0  0  0  0  0  0  0  0  0  0  0  0
    2.3853    1.0083    0.2672 N   0  0  0  0  0  0  0  0  0  0  0  0
    3.6869    0.4990    0.0957 C   0  0  0  0  0  0  0  0  0  0  0  0
    4.1100   -0.5920    0.8450 C   0  0  0  0  0  0  0  0  0  0  0  0
    5.3775   -1.1169    0.7032 C   0  0  0  0  0  0  0  0  0  0  0  0
    5.7639   -2.2832    1.5352 C   0  0  0  0  0  0  0  0  0  0  0  0
    6.3771   -1.8920    2.8398 C   0  0  0  0  0  0  0  0  0  0  0  0
    6.2548   -0.5436   -0.2095 C   0  0  0  0  0  0  0  0  0  0  0  0
    5.8634    0.5501   -0.9760 C   0  0  0  0  0  0  0  0  0  0  0  0
    6.7769    1.1781   -1.9534 C   0  0  0  0  0  0  0  0  0  0  0  0
    7.6057    2.2877   -1.3499 C   0  0  0  0  0  0  0  0  0  0  0  0
    4.6011    1.0281   -0.7959 C   0  0  0  0  0  0  0  0  0  0  0  0
   -4.7422   -1.2741    0.5936 C   0  0  0  0  0  0  0  0  0  0  0  0
   -8.8972   -2.0917    1.2244 H   0  0  0  0  0  0  0  0  0  0  0  0
   -7.7114   -3.3986    1.4207 H   0  0  0  0  0  0  0  0  0  0  0  0
   -7.7419   -2.3396   -0.0960 H   0  0  0  0  0  0  0  0  0  0  0  0
   -6.4521   -1.8727    2.5430 H   0  0  0  0  0  0  0  0  0  0  0  0
   -7.5639   -0.5386    2.1721 H   0  0  0  0  0  0  0  0  0  0  0  0
   -7.2463    0.8887    0.1819 H   0  0  0  0  0  0  0  0  0  0  0  0
   -6.7568    2.2161   -1.7658 H   0  0  0  0  0  0  0  0  0  0  0  0
   -5.1714    2.2189   -2.5595 H   0  0  0  0  0  0  0  0  0  0  0  0
   -5.9813    4.3257   -1.0515 H   0  0  0  0  0  0  0  0  0  0  0  0
   -4.2885    3.8194   -1.1919 H   0  0  0  0  0  0  0  0  0  0  0  0
   -5.2615    3.2681    0.2722 H   0  0  0  0  0  0  0  0  0  0  0  0
   -3.4037    0.9202   -1.6388 H   0  0  0  0  0  0  0  0  0  0  0  0
   -4.0936   -3.4453   -1.1406 H   0  0  0  0  0  0  0  0  0  0  0  0
   -3.0564   -5.6193   -1.8493 H   0  0  0  0  0  0  0  0  0  0  0  0
   -0.5980   -5.8059   -1.9223 H   0  0  0  0  0  0  0  0  0  0  0  0
    0.8495   -3.8739   -1.3046 H   0  0  0  0  0  0  0  0  0  0  0  0
    1.8392   -1.5939   -0.5719 H   0  0  0  0  0  0  0  0  0  0  0  0
   -1.9314    1.3411    0.3971 H   0  0  0  0  0  0  0  0  0  0  0  0
   -1.0214    3.6561    1.1415 H   0  0  0  0  0  0  0  0  0  0  0  0
    0.4290    5.5664    1.7522 H   0  0  0  0  0  0  0  0  0  0  0  0
    2.8321    5.4033    1.6871 H   0  0  0  0  0  0  0  0  0  0  0  0
    3.8859    3.2593    0.9879 H   0  0  0  0  0  0  0  0  0  0  0  0
    3.4375   -1.0660    1.5746 H   0  0  0  0  0  0  0  0  0  0  0  0
    6.5173   -2.8554    0.9241 H   0  0  0  0  0  0  0  0  0  0  0  0
    4.9048   -2.9971    1.6583 H   0  0  0  0  0  0  0  0  0  0  0  0
    7.4559   -2.2208    2.8820 H   0  0  0  0  0  0  0  0  0  0  0  0
    5.8767   -2.5056    3.6376 H   0  0  0  0  0  0  0  0  0  0  0  0
    6.3098   -0.8171    3.0706 H   0  0  0  0  0  0  0  0  0  0  0  0
    7.2333   -0.9510   -0.3171 H   0  0  0  0  0  0  0  0  0  0  0  0
    6.1299    1.5915   -2.7723 H   0  0  0  0  0  0  0  0  0  0  0  0
    7.4179    0.3572   -2.3706 H   0  0  0  0  0  0  0  0  0  0  0  0
    7.4945    2.3188   -0.2541 H   0  0  0  0  0  0  0  0  0  0  0  0
    8.6867    2.1828   -1.6429 H   0  0  0  0  0  0  0  0  0  0  0  0
    7.2868    3.2733   -1.7849 H   0  0  0  0  0  0  0  0  0  0  0  0
    4.2505    1.8835   -1.3744 H   0  0  0  0  0  0  0  0  0  0  0  0
   -4.5084   -2.1787    1.1464 H   0  0  0  0  0  0  0  0  0  0  0  0
  1  2  1  0
  2  3  1  0
  3  4  2  0
  4  5  1  0
  5  6  1  0
  6  7  1  0
  5  8  2  0
  8  9  1  0
  9 10  1  0
 10 11  1  0
 11 12  2  0
 12 13  1  0
 13 14  2  0
 14 15  1  0
 15 16  2  0
 16 17  1  0
 17 18  2  0
 18 19  1  0
 19 20  2  0
 20 21  1  0
 21 22  2  0
 20 23  1  0
 23 24  2  0
 24 25  1  0
 25 26  2  0
 26 27  1  0
 27 28  2  0
 28 29  1  0
 29 30  1  0
 30 31  2  0
 31 32  1  0
 32 33  1  0
 33 34  1  0
 32 35  2  0
 35 36  1  0
 36 37  1  0
 37 38  1  0
 36 39  2  0
  9 40  2  0
 40  3  1  0
 22 10  1  0
 28 23  1  0
 39 30  1  0
 16 11  1  0
 22 17  1  0
 29 19  1  0
  1 41  1  0
  1 42  1  0
  1 43  1  0
  2 44  1  0
  2 45  1  0
  4 46  1  0
  6 47  1  0
  6 48  1  0
  7 49  1  0
  7 50  1  0
  7 51  1  0
  8 52  1  0
 12 53  1  0
 13 54  1  0
 14 55  1  0
 15 56  1  0
 18 57  1  0
 21 58  1  0
 24 59  1  0
 25 60  1  0
 26 61  1  0
 27 62  1  0
 31 63  1  0
 33 64  1  0
 33 65  1  0
 34 66  1  0
 34 67  1  0
 34 68  1  0
 35 69  1  0
 37 70  1  0
 37 71  1  0
 38 72  1  0
 38 73  1  0
 38 74  1  0
 39 75  1  0
 40 76  1  0
M  END
