
     RDKit          3D

 51 54  0  0  0  0  0  0  0  0999 V2000
   -1.8437   -2.1005    3.0286 C   0  0  0  0  0  0  0  0  0  0  0  0
   -1.2715   -1.3632    1.9838 O   0  0  0  0  0  0  0  0  0  0  0  0
   -2.0428   -0.8801    0.9134 C   0  0  0  0  0  0  0  0  0  0  0  0
   -3.3923   -1.1567    0.9254 C   0  0  0  0  0  0  0  0  0  0  0  0
   -4.1356   -0.6699   -0.1400 C   0  0  0  0  0  0  0  0  0  0  0  0
   -3.5165    0.0525   -1.1446 C   0  0  0  0  0  0  0  0  0  0  0  0
   -2.1658    0.3105   -1.1256 C   0  0  0  0  0  0  0  0  0  0  0  0
   -1.5111    1.0320   -2.1211 O   0  0  0  0  0  0  0  0  0  0  0  0
   -2.2850    1.5196   -3.1989 C   0  0  0  0  0  0  0  0  0  0  0  0
   -1.4036   -0.1596   -0.0811 C   0  0  0  0  0  0  0  0  0  0  0  0
    0.0344    0.0375    0.0056 C   0  0  0  0  0  0  0  0  0  0  0  0
    0.4951    1.2563    0.2813 C   0  0  0  0  0  0  0  0  0  0  0  0
   -0.1385    2.5418    0.5405 C   0  0  0  0  0  0  0  0  0  0  0  0
   -1.5961    2.7904    0.5943 C   0  0  0  0  0  0  0  0  0  0  0  0
    0.8356    3.4434    0.7432 C   0  0  0  0  0  0  0  0  0  0  0  0
    2.1131    2.7802    0.6247 C   0  0  0  0  0  0  0  0  0  0  0  0
    3.4422    3.4219    0.7789 C   0  0  0  0  0  0  0  0  0  0  0  0
    1.9008    1.5106    0.3568 N   0  0  0  0  0  4  0  0  0  0  0  0
    2.9116    0.4103    0.1521 B   0  0  0  0  0  4  0  0  0  0  0  0
    3.7241    0.7863   -1.0220 F   0  0  0  0  0  0  0  0  0  0  0  0
    3.8040    0.2819    1.3013 F   0  0  0  0  0  0  0  0  0  0  0  0
    2.2876   -0.9302   -0.1637 N   0  0  0  0  0  0  0  0  0  0  0  0
    2.9345   -2.1084   -0.4241 C   0  0  0  0  0  0  0  0  0  0  0  0
    4.4145   -2.3021   -0.4408 C   0  0  0  0  0  0  0  0  0  0  0  0
    1.9661   -3.0327   -0.6564 C   0  0  0  0  0  0  0  0  0  0  0  0
    0.7343   -2.4114   -0.5363 C   0  0  0  0  0  0  0  0  0  0  0  0
   -0.6050   -3.0144   -0.7193 C   0  0  0  0  0  0  0  0  0  0  0  0
    0.9580   -1.0666   -0.2200 C   0  0  0  0  0  0  0  0  0  0  0  0
   -2.0062   -3.1293    2.6717 H   0  0  0  0  0  0  0  0  0  0  0  0
   -2.7723   -1.6262    3.4313 H   0  0  0  0  0  0  0  0  0  0  0  0
   -1.1227   -2.1524    3.8698 H   0  0  0  0  0  0  0  0  0  0  0  0
   -3.8710   -1.7233    1.7151 H   0  0  0  0  0  0  0  0  0  0  0  0
   -5.1933   -0.8721   -0.1547 H   0  0  0  0  0  0  0  0  0  0  0  0
   -4.1137    0.4250   -1.9686 H   0  0  0  0  0  0  0  0  0  0  0  0
   -1.5956    1.9290   -3.9645 H   0  0  0  0  0  0  0  0  0  0  0  0
   -2.9275    2.3515   -2.8446 H   0  0  0  0  0  0  0  0  0  0  0  0
   -2.9356    0.7117   -3.6077 H   0  0  0  0  0  0  0  0  0  0  0  0
   -1.7418    3.7362    1.2189 H   0  0  0  0  0  0  0  0  0  0  0  0
   -2.1732    2.0380    1.1378 H   0  0  0  0  0  0  0  0  0  0  0  0
   -1.9833    3.0834   -0.3956 H   0  0  0  0  0  0  0  0  0  0  0  0
    0.6343    4.4795    0.9558 H   0  0  0  0  0  0  0  0  0  0  0  0
    3.9627    3.0338    1.6892 H   0  0  0  0  0  0  0  0  0  0  0  0
    3.3301    4.4957    0.9097 H   0  0  0  0  0  0  0  0  0  0  0  0
    4.0814    3.2317   -0.0976 H   0  0  0  0  0  0  0  0  0  0  0  0
    4.8246   -1.9699   -1.4021 H   0  0  0  0  0  0  0  0  0  0  0  0
    4.9183   -1.8003    0.3892 H   0  0  0  0  0  0  0  0  0  0  0  0
    4.6300   -3.3868   -0.3571 H   0  0  0  0  0  0  0  0  0  0  0  0
    2.0916   -4.0727   -0.8944 H   0  0  0  0  0  0  0  0  0  0  0  0
   -1.2370   -2.3969   -1.3552 H   0  0  0  0  0  0  0  0  0  0  0  0
   -0.3999   -3.9345   -1.3698 H   0  0  0  0  0  0  0  0  0  0  0  0
   -1.0484   -3.4302    0.1872 H   0  0  0  0  0  0  0  0  0  0  0  0
  1  2  1  0
  2  3  1  0
  3  4  2  0
  4  5  1  0
  5  6  2  0
  6  7  1  0
  7  8  1  0
  8  9  1  0
  7 10  2  0
 10 11  1  0
 11 12  2  0
 12 13  1  0
 13 14  1  0
 13 15  2  0
 15 16  1  0
 16 17  1  0
 16 18  2  0
 18 19  1  0
 19 20  1  0
 19 21  1  0
 19 22  1  0
 22 23  1  0
 23 24  1  0
 23 25  2  0
 25 26  1  0
 26 27  1  0
 26 28  2  0
 10  3  1  0
 28 11  1  0
 18 12  1  0
 28 22  1  0
  1 29  1  0
  1 30  1  0
  1 31  1  0
  4 32  1  0
  5 33  1  0
  6 34  1  0
  9 35  1  0
  9 36  1  0
  9 37  1  0
 14 38  1  0
 14 39  1  0
 14 40  1  0
 15 41  1  0
 17 42  1  0
 17 43  1  0
 17 44  1  0
 24 45  1  0
 24 46  1  0
 24 47  1  0
 25 48  1  0
 27 49  1  0
 27 50  1  0
 27 51  1  0
M  CHG  2  18   1  19  -1
M  END
