
     RDKit          3D

 39 43  0  0  0  0  0  0  0  0999 V2000
    5.5517   -1.2824   -0.1706 C   0  0  0  0  0  0  0  0  0  0  0  0
    5.7004    0.0722    0.1038 C   0  0  0  0  0  0  0  0  0  0  0  0
    4.6161    0.8992    0.2751 C   0  0  0  0  0  0  0  0  0  0  0  0
    3.3392    0.3688    0.1715 C   0  0  0  0  0  0  0  0  0  0  0  0
    2.2733    1.2013    0.3438 N   0  0  0  0  0  0  0  0  0  0  0  0
    1.0384    0.6853    0.2429 C   0  0  0  0  0  0  0  0  0  0  0  0
    0.8800   -0.6560   -0.0288 C   0  0  0  0  0  0  0  0  0  0  0  0
    1.9331   -1.4827   -0.1999 N   0  0  0  0  0  0  0  0  0  0  0  0
    3.1940   -0.9708   -0.1000 C   0  0  0  0  0  0  0  0  0  0  0  0
    4.2811   -1.8059   -0.2729 C   0  0  0  0  0  0  0  0  0  0  0  0
   -0.4636   -0.9244   -0.0791 C   0  0  0  0  0  0  0  0  0  0  0  0
   -1.0863    0.3039    0.1722 C   0  0  0  0  0  0  0  0  0  0  0  0
   -0.1600    1.2537    0.3621 N   0  0  0  0  0  0  0  0  0  0  0  0
   -0.6578    2.5914    0.6364 C   0  0  0  0  0  0  0  0  0  0  0  0
   -1.8814    2.9250   -0.1404 C   0  0  0  0  0  0  0  0  0  0  0  0
   -2.9363    1.8834   -0.1476 C   0  0  0  0  0  0  0  0  0  0  0  0
   -2.4887    0.5651    0.2307 N   0  0  0  0  0  0  0  0  0  0  0  0
   -3.5388   -0.3347    0.6273 C   0  0  0  0  0  0  0  0  0  0  0  0
   -3.5017   -1.6768    0.0310 C   0  0  0  0  0  0  0  0  0  0  0  0
   -2.4482   -1.9424   -0.9759 C   0  0  0  0  0  0  0  0  0  0  0  0
   -1.0920   -2.2459   -0.3441 C   0  0  0  0  0  0  0  0  0  0  0  0
    6.4075   -1.9324   -0.3052 H   0  0  0  0  0  0  0  0  0  0  0  0
    6.6754    0.4989    0.1874 H   0  0  0  0  0  0  0  0  0  0  0  0
    4.7254    1.9688    0.4918 H   0  0  0  0  0  0  0  0  0  0  0  0
    4.1317   -2.8755   -0.4895 H   0  0  0  0  0  0  0  0  0  0  0  0
    0.1465    3.3229    0.3338 H   0  0  0  0  0  0  0  0  0  0  0  0
   -0.8051    2.7686    1.7217 H   0  0  0  0  0  0  0  0  0  0  0  0
   -2.3059    3.8686    0.2940 H   0  0  0  0  0  0  0  0  0  0  0  0
   -1.6376    3.2058   -1.2071 H   0  0  0  0  0  0  0  0  0  0  0  0
   -3.8011    2.1395    0.5065 H   0  0  0  0  0  0  0  0  0  0  0  0
   -3.3845    1.7750   -1.1772 H   0  0  0  0  0  0  0  0  0  0  0  0
   -4.5116    0.1948    0.4477 H   0  0  0  0  0  0  0  0  0  0  0  0
   -3.4918   -0.4412    1.7507 H   0  0  0  0  0  0  0  0  0  0  0  0
   -4.4983   -1.8710   -0.4643 H   0  0  0  0  0  0  0  0  0  0  0  0
   -3.4366   -2.4905    0.8116 H   0  0  0  0  0  0  0  0  0  0  0  0
   -2.7302   -2.8643   -1.5455 H   0  0  0  0  0  0  0  0  0  0  0  0
   -2.3547   -1.1335   -1.7160 H   0  0  0  0  0  0  0  0  0  0  0  0
   -1.2245   -2.7351    0.6468 H   0  0  0  0  0  0  0  0  0  0  0  0
   -0.4570   -2.8267   -1.0248 H   0  0  0  0  0  0  0  0  0  0  0  0
  1  2  2  0
  2  3  1  0
  3  4  2  0
  4  5  1  0
  5  6  2  0
  6  7  1  0
  7  8  2  0
  8  9  1  0
  9 10  2  0
  7 11  1  0
 11 12  2  0
 12 13  1  0
 13 14  1  0
 14 15  1  0
 15 16  1  0
 16 17  1  0
 17 18  1  0
 18 19  1  0
 19 20  1  0
 20 21  1  0
 10  1  1  0
 21 11  1  0
  9  4  1  0
 17 12  1  0
 13  6  1  0
  1 22  1  0
  2 23  1  0
  3 24  1  0
 10 25  1  0
 14 26  1  0
 14 27  1  0
 15 28  1  0
 15 29  1  0
 16 30  1  0
 16 31  1  0
 18 32  1  0
 18 33  1  0
 19 34  1  0
 19 35  1  0
 20 36  1  0
 20 37  1  0
 21 38  1  0
 21 39  1  0
M  END
