
     RDKit          3D

 34 36  0  0  0  0  0  0  0  0999 V2000
   -3.6753   -0.4141   -0.3550 N   0  0  0  0  0  0  0  0  0  0  0  0
   -2.3904   -0.3284    0.0089 C   0  0  0  0  0  0  0  0  0  0  0  0
   -1.0219   -0.2463    0.3835 C   0  0  0  0  0  0  0  0  0  0  0  0
   -0.7384   -1.2528    1.3464 C   0  0  0  0  0  0  0  0  0  0  0  0
   -1.9490   -1.9668    1.6754 C   0  0  0  0  0  0  0  0  0  0  0  0
   -2.3912   -3.1512    1.1536 C   0  0  0  0  0  0  0  0  0  0  0  0
   -3.7502   -3.5549    1.2847 C   0  0  0  0  0  0  0  0  0  0  0  0
   -4.5027   -2.7138    1.9396 C   0  0  0  0  0  0  0  0  0  0  0  0
   -5.9944   -2.7460    1.5014 C   0  0  0  0  0  0  0  0  0  0  0  0
   -7.0997   -2.7850    1.1841 N   0  0  0  0  0  0  0  0  0  0  0  0
   -4.2730   -1.5267    2.5679 C   0  0  0  0  0  0  0  0  0  0  0  0
   -2.8613   -1.1221    2.4065 C   0  0  0  0  0  0  0  0  0  0  0  0
   -0.1803    0.6296   -0.3186 C   0  0  0  0  0  0  0  0  0  0  0  0
    0.9232    0.8416   -0.6926 N   0  0  0  0  0  0  0  0  0  0  0  0
    1.5730    1.7388   -1.2980 C   0  0  0  0  0  0  0  0  0  0  0  0
    2.9956    1.7438   -1.5696 C   0  0  0  0  0  0  0  0  0  0  0  0
    3.9332    0.9890   -1.1777 C   0  0  0  0  0  0  0  0  0  0  0  0
    5.2971    0.8457   -1.3595 C   0  0  0  0  0  0  0  0  0  0  0  0
    5.7138    1.9647   -2.3495 C   0  0  0  0  0  0  0  0  0  0  0  0
    4.8214    2.7162   -2.7325 C   0  0  0  0  0  0  0  0  0  0  0  0
    3.4283    2.8051   -2.4885 C   0  0  0  0  0  0  0  0  0  0  0  0
    0.7309    2.7754   -1.6056 C   0  0  0  0  0  0  0  0  0  0  0  0
   -0.8093    2.2542   -0.9664 S   0  0  0  0  0  0  0  0  0  0  0  0
    0.2181   -1.2987    1.6365 H   0  0  0  0  0  0  0  0  0  0  0  0
   -1.6879   -3.7655    0.6315 H   0  0  0  0  0  0  0  0  0  0  0  0
   -4.0667   -4.5005    0.8805 H   0  0  0  0  0  0  0  0  0  0  0  0
   -4.8897   -0.9171    3.1253 H   0  0  0  0  0  0  0  0  0  0  0  0
   -2.5364   -0.2217    2.7936 H   0  0  0  0  0  0  0  0  0  0  0  0
    3.6123    0.2113   -0.3738 H   0  0  0  0  0  0  0  0  0  0  0  0
    6.0125    0.2427   -1.0412 H   0  0  0  0  0  0  0  0  0  0  0  0
    6.7704    1.9074   -2.5965 H   0  0  0  0  0  0  0  0  0  0  0  0
    5.1207    3.6316   -3.3862 H   0  0  0  0  0  0  0  0  0  0  0  0
    2.7532    3.4562   -2.8663 H   0  0  0  0  0  0  0  0  0  0  0  0
    0.9139    3.7584   -2.1151 H   0  0  0  0  0  0  0  0  0  0  0  0
  1  2  3  0
  2  3  1  0
  3  4  2  0
  4  5  1  0
  5  6  2  0
  6  7  1  0
  7  8  2  0
  8  9  1  0
  9 10  3  0
  8 11  1  0
 11 12  2  0
  3 13  1  0
 13 14  2  0
 14 15  1  0
 15 16  1  0
 16 17  2  0
 17 18  1  0
 18 19  2  0
 19 20  1  0
 20 21  2  0
 15 22  2  0
 22 23  1  0
 12  5  1  0
 23 13  1  0
 21 16  1  0
  4 24  1  0
  6 25  1  0
  7 26  1  0
 11 27  1  0
 12 28  1  0
 17 29  1  0
 18 30  1  0
 19 31  1  0
 20 32  1  0
 21 33  1  0
 22 34  1  0
M  END
