
     RDKit          3D

 38 41  0  0  0  0  0  0  0  0999 V2000
   -9.2681    2.0165    0.5727 S   0  0  0  0  0  0  0  0  0  0  0  0
   -8.0889    0.9100    0.4319 C   0  0  0  0  0  0  0  0  0  0  0  0
   -8.2676   -0.4126    0.3351 N   0  0  0  0  0  0  0  0  0  0  0  0
   -7.0483   -0.9381    0.2386 N   0  0  0  0  0  0  0  0  0  0  0  0
   -6.1275    0.0405    0.2747 C   0  0  0  0  0  0  0  0  0  0  0  0
   -4.6770   -0.0765    0.2001 C   0  0  0  0  0  0  0  0  0  0  0  0
   -3.8777    1.0361    0.2523 C   0  0  0  0  0  0  0  0  0  0  0  0
   -2.4853    0.9109    0.1797 C   0  0  0  0  0  0  0  0  0  0  0  0
   -1.8758   -0.3032    0.0560 C   0  0  0  0  0  0  0  0  0  0  0  0
   -0.4370   -0.4818   -0.0230 C   0  0  0  0  0  0  0  0  0  0  0  0
    0.4289    0.5099    0.0166 C   0  0  0  0  0  0  0  0  0  0  0  0
    1.8750    0.3521   -0.0610 C   0  0  0  0  0  0  0  0  0  0  0  0
    2.4850   -0.8667   -0.1851 C   0  0  0  0  0  0  0  0  0  0  0  0
    3.8830   -0.9783   -0.2569 C   0  0  0  0  0  0  0  0  0  0  0  0
    4.6758    0.1449   -0.2035 C   0  0  0  0  0  0  0  0  0  0  0  0
    6.1347    0.0395   -0.2776 C   0  0  0  0  0  0  0  0  0  0  0  0
    6.8560   -1.0873   -0.3993 N   0  0  0  0  0  0  0  0  0  0  0  0
    8.1591   -0.7643   -0.4324 N   0  0  0  0  0  0  0  0  0  0  0  0
    8.2259    0.5769   -0.3291 C   0  0  0  0  0  0  0  0  0  0  0  0
    9.6309    1.4396   -0.3239 S   0  0  0  0  0  0  0  0  0  0  0  0
    7.0061    1.0178   -0.2392 O   0  0  0  0  0  0  0  0  0  0  0  0
    4.0372    1.3582   -0.0786 C   0  0  0  0  0  0  0  0  0  0  0  0
    2.6725    1.4746   -0.0079 C   0  0  0  0  0  0  0  0  0  0  0  0
   -2.6894   -1.4354    0.0029 C   0  0  0  0  0  0  0  0  0  0  0  0
   -4.0692   -1.3025    0.0756 C   0  0  0  0  0  0  0  0  0  0  0  0
   -6.8171    1.1579    0.3943 O   0  0  0  0  0  0  0  0  0  0  0  0
   -9.1376   -0.9828    0.3291 H   0  0  0  0  0  0  0  0  0  0  0  0
   -4.3256    2.0196    0.3504 H   0  0  0  0  0  0  0  0  0  0  0  0
   -1.9193    1.8254    0.2266 H   0  0  0  0  0  0  0  0  0  0  0  0
   -0.0327   -1.5130   -0.1229 H   0  0  0  0  0  0  0  0  0  0  0  0
   -0.0119    1.5165    0.1163 H   0  0  0  0  0  0  0  0  0  0  0  0
    1.9105   -1.7836   -0.2320 H   0  0  0  0  0  0  0  0  0  0  0  0
    4.3666   -1.9367   -0.3547 H   0  0  0  0  0  0  0  0  0  0  0  0
    8.9564   -1.4337   -0.5213 H   0  0  0  0  0  0  0  0  0  0  0  0
    4.6280    2.2553   -0.0340 H   0  0  0  0  0  0  0  0  0  0  0  0
    2.1691    2.4335    0.0908 H   0  0  0  0  0  0  0  0  0  0  0  0
   -2.2613   -2.4262   -0.0949 H   0  0  0  0  0  0  0  0  0  0  0  0
   -4.6833   -2.1819    0.0336 H   0  0  0  0  0  0  0  0  0  0  0  0
  1  2  2  0
  2  3  1  0
  3  4  1  0
  4  5  2  0
  5  6  1  0
  6  7  2  0
  7  8  1  0
  8  9  2  0
  9 10  1  0
 10 11  2  0
 11 12  1  0
 12 13  2  0
 13 14  1  0
 14 15  2  0
 15 16  1  0
 16 17  2  0
 17 18  1  0
 18 19  1  0
 19 20  2  0
 19 21  1  0
 15 22  1  0
 22 23  2  0
  9 24  1  0
 24 25  2  0
  5 26  1  0
 26  2  1  0
 25  6  1  0
 23 12  1  0
 21 16  1  0
  3 27  1  0
  7 28  1  0
  8 29  1  0
 10 30  1  0
 11 31  1  0
 13 32  1  0
 14 33  1  0
 18 34  1  0
 22 35  1  0
 23 36  1  0
 24 37  1  0
 25 38  1  0
M  END
