
     RDKit          3D

 25 27  0  0  0  0  0  0  0  0999 V2000
   -5.0392    2.0122    2.9242 N   0  0  0  0  0  0  0  0  0  0  0  0
   -4.1144    1.3083    2.7482 C   0  0  0  0  0  0  0  0  0  0  0  0
   -2.9922    0.4482    2.5093 C   0  0  0  0  0  0  0  0  0  0  0  0
   -2.8095   -0.5897    3.4191 C   0  0  0  0  0  0  0  0  0  0  0  0
   -1.7363   -1.4500    3.2302 C   0  0  0  0  0  0  0  0  0  0  0  0
   -0.9134   -1.2370    2.1632 C   0  0  0  0  0  0  0  0  0  0  0  0
   -1.0701   -0.2181    1.2469 C   0  0  0  0  0  0  0  0  0  0  0  0
   -0.1564   -0.0448    0.1283 C   0  0  0  0  0  0  0  0  0  0  0  0
    1.2137   -1.0318   -0.2326 P   0  0  0  0  0  0  0  0  0  0  0  0
    1.9967   -0.4213   -1.6794 C   0  0  0  0  0  0  0  0  0  0  0  0
    3.1140   -0.8659   -2.3544 C   0  0  0  0  0  0  0  0  0  0  0  0
    3.5750   -0.2357   -3.4925 C   0  0  0  0  0  0  0  0  0  0  0  0
    2.8753    0.8579   -3.9307 C   0  0  0  0  0  0  0  0  0  0  0  0
    1.7534    1.3302   -3.2802 C   0  0  0  0  0  0  0  0  0  0  0  0
    1.3039    0.6792   -2.1322 C   0  0  0  0  0  0  0  0  0  0  0  0
   -0.0487    1.0583   -1.1470 S   0  0  0  0  0  0  0  0  0  0  0  0
   -2.1427    0.6353    1.4426 C   0  0  0  0  0  0  0  0  0  0  0  0
   -3.4826   -0.7360    4.2623 H   0  0  0  0  0  0  0  0  0  0  0  0
   -1.6078   -2.2504    3.9445 H   0  0  0  0  0  0  0  0  0  0  0  0
   -0.0726   -1.9090    2.0131 H   0  0  0  0  0  0  0  0  0  0  0  0
    3.6804   -1.7343   -2.0175 H   0  0  0  0  0  0  0  0  0  0  0  0
    4.4584   -0.5963   -4.0165 H   0  0  0  0  0  0  0  0  0  0  0  0
    3.2618    1.3428   -4.8388 H   0  0  0  0  0  0  0  0  0  0  0  0
    1.2605    2.1954   -3.6892 H   0  0  0  0  0  0  0  0  0  0  0  0
   -2.3071    1.4525    0.7473 H   0  0  0  0  0  0  0  0  0  0  0  0
  1  2  3  0
  2  3  1  0
  3  4  2  0
  4  5  1  0
  5  6  2  0
  6  7  1  0
  7  8  1  0
  8  9  2  0
  9 10  1  0
 10 11  2  0
 11 12  1  0
 12 13  2  0
 13 14  1  0
 14 15  2  0
 15 16  1  0
  7 17  2  0
 17  3  1  0
 16  8  1  0
 15 10  1  0
  4 18  1  0
  5 19  1  0
  6 20  1  0
 11 21  1  0
 12 22  1  0
 13 23  1  0
 14 24  1  0
 17 25  1  0
M  END
