
     RDKit          3D

 23 24  0  0  0  0  0  0  0  0999 V2000
   -4.1536    0.3022    0.0105 C   0  0  0  0  0  0  0  0  0  0  0  0
   -2.9289    0.7853    0.5012 O   0  0  0  0  0  0  0  0  0  0  0  0
   -1.7096    0.2669    0.0774 C   0  0  0  0  0  0  0  0  0  0  0  0
   -1.6416   -0.7520   -0.8502 C   0  0  0  0  0  0  0  0  0  0  0  0
   -0.4017   -1.2219   -1.2289 C   0  0  0  0  0  0  0  0  0  0  0  0
    0.7554   -0.6642   -0.6727 C   0  0  0  0  0  0  0  0  0  0  0  0
    2.0039   -1.1267   -1.0444 C   0  0  0  0  0  0  0  0  0  0  0  0
    3.1365   -0.5687   -0.4889 C   0  0  0  0  0  0  0  0  0  0  0  0
    3.0617    0.4490    0.4373 C   0  0  0  0  0  0  0  0  0  0  0  0
    4.2318    0.9664    0.9572 O   0  0  0  0  0  0  0  0  0  0  0  0
    1.8234    0.9247    0.8214 C   0  0  0  0  0  0  0  0  0  0  0  0
    0.6964    0.3551    0.2556 C   0  0  0  0  0  0  0  0  0  0  0  0
   -0.5633    0.8136    0.6231 C   0  0  0  0  0  0  0  0  0  0  0  0
   -4.9693    0.5739    0.7376 H   0  0  0  0  0  0  0  0  0  0  0  0
   -4.1077   -0.8098    0.0337 H   0  0  0  0  0  0  0  0  0  0  0  0
   -4.3920    0.6611   -1.0110 H   0  0  0  0  0  0  0  0  0  0  0  0
   -2.5695   -1.1595   -1.2599 H   0  0  0  0  0  0  0  0  0  0  0  0
   -0.3260   -2.0223   -1.9567 H   0  0  0  0  0  0  0  0  0  0  0  0
    2.0433   -1.9169   -1.7642 H   0  0  0  0  0  0  0  0  0  0  0  0
    4.1218   -0.9464   -0.7937 H   0  0  0  0  0  0  0  0  0  0  0  0
    4.7298    1.7507    0.5370 H   0  0  0  0  0  0  0  0  0  0  0  0
    1.7459    1.7257    1.5496 H   0  0  0  0  0  0  0  0  0  0  0  0
   -0.5866    1.6137    1.3527 H   0  0  0  0  0  0  0  0  0  0  0  0
  1  2  1  0
  2  3  1  0
  3  4  2  0
  4  5  1  0
  5  6  2  0
  6  7  1  0
  7  8  2  0
  8  9  1  0
  9 10  1  0
  9 11  2  0
 11 12  1  0
 12 13  2  0
 13  3  1  0
 12  6  1  0
  1 14  1  0
  1 15  1  0
  1 16  1  0
  4 17  1  0
  5 18  1  0
  7 19  1  0
  8 20  1  0
 10 21  1  0
 11 22  1  0
 13 23  1  0
M  END
