
     RDKit          3D

 23 25  0  0  0  0  0  0  0  0999 V2000
   -0.0378   -2.3265   -0.4150 O   0  0  0  0  0  0  0  0  0  0  0  0
   -0.0206   -1.0550   -0.2636 C   0  0  0  0  0  0  0  0  0  0  0  0
    1.2221   -0.4705   -0.2251 C   0  0  0  0  0  0  0  0  0  0  0  0
    2.3717   -1.2622   -0.3486 C   0  0  0  0  0  0  0  0  0  0  0  0
    3.6294   -0.6927   -0.3123 C   0  0  0  0  0  0  0  0  0  0  0  0
    3.8260    0.6609   -0.1556 C   0  0  0  0  0  0  0  0  0  0  0  0
    2.7123    1.4517   -0.0331 C   0  0  0  0  0  0  0  0  0  0  0  0
    1.4475    0.8803   -0.0695 C   0  0  0  0  0  0  0  0  0  0  0  0
    0.0343    1.8467    0.0816 S   0  0  0  0  0  0  0  0  0  0  0  0
   -1.4112    0.9234    0.0077 C   0  0  0  0  0  0  0  0  0  0  0  0
   -2.6695    1.4720    0.1050 C   0  0  0  0  0  0  0  0  0  0  0  0
   -3.8054    0.6919    0.0404 C   0  0  0  0  0  0  0  0  0  0  0  0
   -3.6527   -0.6647   -0.1254 C   0  0  0  0  0  0  0  0  0  0  0  0
   -2.3877   -1.2008   -0.2213 C   0  0  0  0  0  0  0  0  0  0  0  0
   -1.2248   -0.4327   -0.1589 C   0  0  0  0  0  0  0  0  0  0  0  0
    2.2464   -2.3405   -0.4743 H   0  0  0  0  0  0  0  0  0  0  0  0
    4.5085   -1.3250   -0.4100 H   0  0  0  0  0  0  0  0  0  0  0  0
    4.8000    1.1282   -0.1244 H   0  0  0  0  0  0  0  0  0  0  0  0
    2.7658    2.5278    0.0941 H   0  0  0  0  0  0  0  0  0  0  0  0
   -2.7054    2.5575    0.2355 H   0  0  0  0  0  0  0  0  0  0  0  0
   -4.7478    1.1837    0.1229 H   0  0  0  0  0  0  0  0  0  0  0  0
   -4.5516   -1.2658   -0.1746 H   0  0  0  0  0  0  0  0  0  0  0  0
   -2.3496   -2.2877   -0.3521 H   0  0  0  0  0  0  0  0  0  0  0  0
  1  2  2  0
  2  3  1  0
  3  4  2  0
  4  5  1  0
  5  6  2  0
  6  7  1  0
  7  8  2  0
  8  9  1  0
  9 10  1  0
 10 11  2  0
 11 12  1  0
 12 13  2  0
 13 14  1  0
 14 15  2  0
 15  2  1  0
  8  3  1  0
 15 10  1  0
  4 16  1  0
  5 17  1  0
  6 18  1  0
  7 19  1  0
 11 20  1  0
 12 21  1  0
 13 22  1  0
 14 23  1  0
M  END
