
     RDKit          3D

 32 35  0  0  0  0  0  0  0  0999 V2000
    1.2608   -2.5321   -0.2675 O   0  0  0  0  0  0  0  0  0  0  0  0
    0.6874   -1.4029   -0.0822 C   0  0  0  0  0  0  0  0  0  0  0  0
   -0.6144   -1.2969   -0.1072 O   0  0  0  0  0  0  0  0  0  0  0  0
   -1.2145   -0.1465    0.0810 C   0  0  0  0  0  0  0  0  0  0  0  0
   -0.5179    1.0227    0.3167 C   0  0  0  0  0  0  0  0  0  0  0  0
   -1.2174    2.1954    0.5056 C   0  0  0  0  0  0  0  0  0  0  0  0
   -2.5961    2.2299    0.4650 C   0  0  0  0  0  0  0  0  0  0  0  0
   -3.3123    1.0668    0.2297 C   0  0  0  0  0  0  0  0  0  0  0  0
   -4.6979    1.1229    0.1928 C   0  0  0  0  0  0  0  0  0  0  0  0
   -5.3630   -0.0620   -0.0447 C   0  0  0  0  0  0  0  0  0  0  0  0
   -4.6857   -1.2386   -0.2350 C   0  0  0  0  0  0  0  0  0  0  0  0
   -3.3085   -1.2446   -0.1893 C   0  0  0  0  0  0  0  0  0  0  0  0
   -2.6058   -0.0865    0.0446 C   0  0  0  0  0  0  0  0  0  0  0  0
    0.8192    0.9194    0.3434 N   0  0  0  0  0  0  0  0  0  0  0  0
    1.4273   -0.2642    0.1495 C   0  0  0  0  0  0  0  0  0  0  0  0
    2.8757   -0.3294    0.1869 C   0  0  0  0  0  0  0  0  0  0  0  0
    3.5623    0.3348    1.2091 C   0  0  0  0  0  0  0  0  0  0  0  0
    4.9398    0.2754    1.2484 C   0  0  0  0  0  0  0  0  0  0  0  0
    5.6809   -0.4193    0.3118 C   0  0  0  0  0  0  0  0  0  0  0  0
    4.9695   -1.0631   -0.6830 C   0  0  0  0  0  0  0  0  0  0  0  0
    3.5939   -1.0299   -0.7599 C   0  0  0  0  0  0  0  0  0  0  0  0
   -0.6283    3.0866    0.6873 H   0  0  0  0  0  0  0  0  0  0  0  0
   -3.1472    3.1354    0.6105 H   0  0  0  0  0  0  0  0  0  0  0  0
   -5.2044    2.0707    0.3475 H   0  0  0  0  0  0  0  0  0  0  0  0
   -6.4633   -0.0553   -0.0808 H   0  0  0  0  0  0  0  0  0  0  0  0
   -5.2367   -2.1689   -0.4225 H   0  0  0  0  0  0  0  0  0  0  0  0
   -2.7506   -2.1722   -0.3386 H   0  0  0  0  0  0  0  0  0  0  0  0
    2.9755    0.8884    1.9557 H   0  0  0  0  0  0  0  0  0  0  0  0
    5.4821    0.7950    2.0483 H   0  0  0  0  0  0  0  0  0  0  0  0
    6.7627   -0.4683    0.3393 H   0  0  0  0  0  0  0  0  0  0  0  0
    5.4935   -1.6250   -1.4472 H   0  0  0  0  0  0  0  0  0  0  0  0
    3.0336   -1.5376   -1.5444 H   0  0  0  0  0  0  0  0  0  0  0  0
  1  2  2  0
  2  3  1  0
  3  4  1  0
  4  5  2  0
  5  6  1  0
  6  7  2  0
  7  8  1  0
  8  9  2  0
  9 10  1  0
 10 11  2  0
 11 12  1  0
 12 13  2  0
  5 14  1  0
 14 15  2  0
 15 16  1  0
 16 17  2  0
 17 18  1  0
 18 19  2  0
 19 20  1  0
 20 21  2  0
 15  2  1  0
 21 16  1  0
 13  4  1  0
 13  8  1  0
  6 22  1  0
  7 23  1  0
  9 24  1  0
 10 25  1  0
 11 26  1  0
 12 27  1  0
 17 28  1  0
 18 29  1  0
 19 30  1  0
 20 31  1  0
 21 32  1  0
M  END
