
     RDKit          3D

 39 43  0  0  0  0  0  0  0  0999 V2000
    6.1569    0.1340   -0.2529 C   0  0  0  0  0  0  0  0  0  0  0  0
    5.6931   -0.9083   -1.0315 C   0  0  0  0  0  0  0  0  0  0  0  0
    4.3379   -1.1388   -1.1399 C   0  0  0  0  0  0  0  0  0  0  0  0
    3.4582   -0.2985   -0.4483 C   0  0  0  0  0  0  0  0  0  0  0  0
    2.0978   -0.5158   -0.5466 C   0  0  0  0  0  0  0  0  0  0  0  0
    1.2287    0.2885    0.1164 C   0  0  0  0  0  0  0  0  0  0  0  0
   -0.2165    0.0854    0.0323 C   0  0  0  0  0  0  0  0  0  0  0  0
   -0.7663   -1.1777   -0.1258 C   0  0  0  0  0  0  0  0  0  0  0  0
   -2.1391   -1.2583   -0.1946 C   0  0  0  0  0  0  0  0  0  0  0  0
   -2.7228   -2.6101   -0.3658 C   0  0  0  0  0  0  0  0  0  0  0  0
   -4.0022   -2.9414   -0.4592 N   0  0  0  0  0  0  0  0  0  0  0  0
   -4.3373   -4.1810   -0.6076 C   0  0  0  0  0  0  0  0  0  0  0  0
   -3.3293   -5.1119   -0.6621 C   0  0  0  0  0  0  0  0  0  0  0  0
   -1.9431   -4.1196   -0.4927 S   0  0  0  0  0  0  0  0  0  0  0  0
   -2.9556   -0.1818   -0.1162 N   0  0  0  0  0  0  0  0  0  0  0  0
   -2.4412    1.0315    0.0351 C   0  0  0  0  0  0  0  0  0  0  0  0
   -3.2537    2.2602    0.1297 C   0  0  0  0  0  0  0  0  0  0  0  0
   -4.5736    2.3864    0.0854 N   0  0  0  0  0  0  0  0  0  0  0  0
   -5.1128    3.5572    0.1851 C   0  0  0  0  0  0  0  0  0  0  0  0
   -4.2752    4.6352    0.3350 C   0  0  0  0  0  0  0  0  0  0  0  0
   -2.7408    3.8791    0.3224 S   0  0  0  0  0  0  0  0  0  0  0  0
   -1.0778    1.1718    0.1098 C   0  0  0  0  0  0  0  0  0  0  0  0
    1.6855    1.3305    0.8952 C   0  0  0  0  0  0  0  0  0  0  0  0
    3.0341    1.5571    1.0012 C   0  0  0  0  0  0  0  0  0  0  0  0
    3.9212    0.7427    0.3295 C   0  0  0  0  0  0  0  0  0  0  0  0
    5.2938    0.9576    0.4251 C   0  0  0  0  0  0  0  0  0  0  0  0
    7.2196    0.3085   -0.1724 H   0  0  0  0  0  0  0  0  0  0  0  0
    6.4079   -1.5385   -1.5528 H   0  0  0  0  0  0  0  0  0  0  0  0
    3.9462   -1.9622   -1.7537 H   0  0  0  0  0  0  0  0  0  0  0  0
    1.7538   -1.3524   -1.1730 H   0  0  0  0  0  0  0  0  0  0  0  0
   -0.1193   -2.0507   -0.1899 H   0  0  0  0  0  0  0  0  0  0  0  0
   -5.4006   -4.4991   -0.6898 H   0  0  0  0  0  0  0  0  0  0  0  0
   -3.4349   -6.2053   -0.7845 H   0  0  0  0  0  0  0  0  0  0  0  0
   -6.2141    3.7159    0.1537 H   0  0  0  0  0  0  0  0  0  0  0  0
   -4.5602    5.6990    0.4344 H   0  0  0  0  0  0  0  0  0  0  0  0
   -0.6428    2.1556    0.2329 H   0  0  0  0  0  0  0  0  0  0  0  0
    0.9953    1.9879    1.4363 H   0  0  0  0  0  0  0  0  0  0  0  0
    3.4108    2.3797    1.6154 H   0  0  0  0  0  0  0  0  0  0  0  0
    5.6183    1.7876    1.0475 H   0  0  0  0  0  0  0  0  0  0  0  0
  1  2  2  0
  2  3  1  0
  3  4  2  0
  4  5  1  0
  5  6  2  0
  6  7  1  0
  7  8  2  0
  8  9  1  0
  9 10  1  0
 10 11  2  0
 11 12  1  0
 12 13  2  0
 13 14  1  0
  9 15  2  0
 15 16  1  0
 16 17  1  0
 17 18  2  0
 18 19  1  0
 19 20  2  0
 20 21  1  0
 16 22  2  0
  6 23  1  0
 23 24  2  0
 24 25  1  0
 25 26  2  0
 26  1  1  0
 25  4  1  0
 22  7  1  0
 14 10  1  0
 21 17  1  0
  1 27  1  0
  2 28  1  0
  3 29  1  0
  5 30  1  0
  8 31  1  0
 12 32  1  0
 13 33  1  0
 19 34  1  0
 20 35  1  0
 22 36  1  0
 23 37  1  0
 24 38  1  0
 26 39  1  0
M  END
