
     RDKit          3D

 17 18  0  0  0  0  0  0  0  0999 V2000
    3.2955    0.2458   -0.3258 C   0  0  0  0  0  0  0  0  0  0  0  0
    1.8125    0.1294   -0.1977 C   0  0  0  0  0  0  0  0  0  0  0  0
    0.9703   -0.1468   -1.2211 N   0  0  0  0  0  0  0  0  0  0  0  0
   -0.2658   -0.1589   -0.6713 C   0  0  0  0  0  0  0  0  0  0  0  0
   -1.5375   -0.3720   -1.1525 C   0  0  0  0  0  0  0  0  0  0  0  0
   -2.6702   -0.3300   -0.3714 C   0  0  0  0  0  0  0  0  0  0  0  0
   -2.5248   -0.0547    0.9927 C   0  0  0  0  0  0  0  0  0  0  0  0
   -1.2569    0.1614    1.4913 C   0  0  0  0  0  0  0  0  0  0  0  0
   -0.1485    0.1111    0.6792 C   0  0  0  0  0  0  0  0  0  0  0  0
    1.1263    0.2766    0.9105 O   0  0  0  0  0  0  0  0  0  0  0  0
    3.8014   -0.7296   -0.1963 H   0  0  0  0  0  0  0  0  0  0  0  0
    3.5971    0.6313   -1.3251 H   0  0  0  0  0  0  0  0  0  0  0  0
    3.6802    0.9642    0.4181 H   0  0  0  0  0  0  0  0  0  0  0  0
   -1.6587   -0.5838   -2.1976 H   0  0  0  0  0  0  0  0  0  0  0  0
   -3.6693   -0.4994   -0.7599 H   0  0  0  0  0  0  0  0  0  0  0  0
   -3.4175   -0.0223    1.6043 H   0  0  0  0  0  0  0  0  0  0  0  0
   -1.1343    0.3777    2.5591 H   0  0  0  0  0  0  0  0  0  0  0  0
  1  2  1  0
  2  3  2  0
  3  4  1  0
  4  5  2  0
  5  6  1  0
  6  7  2  0
  7  8  1  0
  8  9  2  0
  9 10  1  0
 10  2  1  0
  9  4  1  0
  1 11  1  0
  1 12  1  0
  1 13  1  0
  5 14  1  0
  6 15  1  0
  7 16  1  0
  8 17  1  0
M  END
