
     RDKit          3D

 92 96  0  0  0  0  0  0  0  0999 V2000
   10.1177    2.2687    1.8784 C   0  0  0  0  0  0  0  0  0  0  0  0
    8.7592    2.4338    2.5380 C   0  0  0  0  0  0  0  0  0  0  0  0
    7.8598    1.6295    1.7978 O   0  0  0  0  0  0  0  0  0  0  0  0
    6.5160    1.5096    2.0822 C   0  0  0  0  0  0  0  0  0  0  0  0
    6.0474    2.1457    3.0516 O   0  0  0  0  0  0  0  0  0  0  0  0
    5.5939    0.6597    1.2909 C   0  0  0  0  0  0  0  0  0  0  0  0
    4.8534    1.5735    0.3575 C   0  0  0  0  0  0  0  0  0  0  0  0
    3.8510    0.8512   -0.5312 C   0  0  0  0  0  0  0  0  0  0  0  0
    4.5072   -0.1717   -1.3990 C   0  0  0  0  0  0  0  0  0  0  0  0
    3.5682   -0.9411   -2.3020 C   0  0  0  0  0  0  0  0  0  0  0  0
    2.5509   -1.6810   -1.5894 N   0  0  0  0  0  0  0  0  0  0  0  0
    2.8775   -2.9490   -1.1573 C   0  0  0  0  0  0  0  0  0  0  0  0
    4.1344   -3.4640   -1.3908 C   0  0  0  0  0  0  0  0  0  0  0  0
    4.4344   -4.7357   -0.9450 C   0  0  0  0  0  0  0  0  0  0  0  0
    3.5290   -5.5191   -0.2727 C   0  0  0  0  0  0  0  0  0  0  0  0
    3.8317   -6.8079    0.1793 O   0  0  0  0  0  0  0  0  0  0  0  0
    5.1378   -7.2831   -0.0907 C   0  0  0  0  0  0  0  0  0  0  0  0
    2.2872   -4.9743   -0.0574 C   0  0  0  0  0  0  0  0  0  0  0  0
    1.9339   -3.7083   -0.4812 C   0  0  0  0  0  0  0  0  0  0  0  0
    0.6744   -3.2073   -0.2379 C   0  0  0  0  0  0  0  0  0  0  0  0
   -0.1533   -3.9066    0.3700 O   0  0  0  0  0  0  0  0  0  0  0  0
    0.3803   -1.9413   -0.6815 C   0  0  0  0  0  0  0  0  0  0  0  0
   -0.9169   -1.4596   -0.4257 C   0  0  0  0  0  0  0  0  0  0  0  0
   -1.2774   -0.2063   -0.8504 C   0  0  0  0  0  0  0  0  0  0  0  0
   -0.3243    0.5604   -1.5334 C   0  0  0  0  0  0  0  0  0  0  0  0
    0.9553    0.0727   -1.7798 C   0  0  0  0  0  0  0  0  0  0  0  0
    1.3188   -1.1915   -1.3516 C   0  0  0  0  0  0  0  0  0  0  0  0
   -0.6231    1.8107   -1.9669 C   0  0  0  0  0  0  0  0  0  0  0  0
    0.2242    2.5098   -2.5818 O   0  0  0  0  0  0  0  0  0  0  0  0
   -1.8829    2.3156   -1.7235 C   0  0  0  0  0  0  0  0  0  0  0  0
   -2.1392    3.5989   -2.1801 C   0  0  0  0  0  0  0  0  0  0  0  0
   -3.3889    4.1284   -1.9445 C   0  0  0  0  0  0  0  0  0  0  0  0
   -3.6612    5.4104   -2.3948 O   0  0  0  0  0  0  0  0  0  0  0  0
   -2.7526    6.2153   -3.0774 C   0  0  0  0  0  0  0  0  0  0  0  0
   -4.3177    3.3695   -1.2738 C   0  0  0  0  0  0  0  0  0  0  0  0
   -4.0308    2.0724   -0.8226 C   0  0  0  0  0  0  0  0  0  0  0  0
   -2.7932    1.5312   -1.0494 C   0  0  0  0  0  0  0  0  0  0  0  0
   -2.5276    0.2798   -0.6046 N   0  0  0  0  0  0  0  0  0  0  0  0
   -3.4685   -0.5454    0.0799 C   0  0  0  0  0  0  0  0  0  0  0  0
   -3.4546   -0.4383    1.5644 C   0  0  0  0  0  0  0  0  0  0  0  0
   -4.4452   -1.3463    2.1956 C   0  0  0  0  0  0  0  0  0  0  0  0
   -5.8774   -1.1208    1.8332 C   0  0  0  0  0  0  0  0  0  0  0  0
   -6.4210    0.2231    2.1901 C   0  0  0  0  0  0  0  0  0  0  0  0
   -7.8544    0.2406    1.7438 C   0  0  0  0  0  0  0  0  0  0  0  0
   -8.7351   -0.3736    2.4328 O   0  0  0  0  0  0  0  0  0  0  0  0
   -8.2876    0.8946    0.6091 O   0  0  0  0  0  0  0  0  0  0  0  0
   -9.6343    0.9105    0.1895 C   0  0  0  0  0  0  0  0  0  0  0  0
  -10.5556    1.5284    1.2182 C   0  0  0  0  0  0  0  0  0  0  0  0
   10.8231    3.0276    2.2819 H   0  0  0  0  0  0  0  0  0  0  0  0
   10.0446    2.4500    0.7986 H   0  0  0  0  0  0  0  0  0  0  0  0
   10.5524    1.2789    2.0676 H   0  0  0  0  0  0  0  0  0  0  0  0
    8.8128    2.0639    3.5894 H   0  0  0  0  0  0  0  0  0  0  0  0
    8.4724    3.5061    2.4831 H   0  0  0  0  0  0  0  0  0  0  0  0
    4.9021    0.1764    2.0371 H   0  0  0  0  0  0  0  0  0  0  0  0
    6.1840   -0.1223    0.7852 H   0  0  0  0  0  0  0  0  0  0  0  0
    4.3965    2.3778    0.9331 H   0  0  0  0  0  0  0  0  0  0  0  0
    5.6184    2.0071   -0.3349 H   0  0  0  0  0  0  0  0  0  0  0  0
    3.3835    1.6816   -1.1310 H   0  0  0  0  0  0  0  0  0  0  0  0
    3.1069    0.3534    0.1179 H   0  0  0  0  0  0  0  0  0  0  0  0
    5.2544    0.4096   -2.0270 H   0  0  0  0  0  0  0  0  0  0  0  0
    5.1903   -0.8394   -0.8052 H   0  0  0  0  0  0  0  0  0  0  0  0
    4.1398   -1.5668   -3.0361 H   0  0  0  0  0  0  0  0  0  0  0  0
    3.0506   -0.1367   -2.9002 H   0  0  0  0  0  0  0  0  0  0  0  0
    4.8501   -2.8617   -1.9119 H   0  0  0  0  0  0  0  0  0  0  0  0
    5.4303   -5.1012   -1.1486 H   0  0  0  0  0  0  0  0  0  0  0  0
    5.2543   -8.3477    0.2302 H   0  0  0  0  0  0  0  0  0  0  0  0
    5.3311   -7.2303   -1.1942 H   0  0  0  0  0  0  0  0  0  0  0  0
    5.9147   -6.6320    0.3655 H   0  0  0  0  0  0  0  0  0  0  0  0
    1.5313   -5.5423    0.4664 H   0  0  0  0  0  0  0  0  0  0  0  0
   -1.6143   -2.0622    0.1070 H   0  0  0  0  0  0  0  0  0  0  0  0
    1.6135    0.7245   -2.3122 H   0  0  0  0  0  0  0  0  0  0  0  0
   -1.3739    4.1472   -2.6991 H   0  0  0  0  0  0  0  0  0  0  0  0
   -1.8095    6.2603   -2.4863 H   0  0  0  0  0  0  0  0  0  0  0  0
   -3.2265    7.2310   -3.1793 H   0  0  0  0  0  0  0  0  0  0  0  0
   -2.5838    5.8097   -4.1059 H   0  0  0  0  0  0  0  0  0  0  0  0
   -5.3129    3.7667   -1.0751 H   0  0  0  0  0  0  0  0  0  0  0  0
   -4.7640    1.5070   -0.2997 H   0  0  0  0  0  0  0  0  0  0  0  0
   -3.3998   -1.6448   -0.1793 H   0  0  0  0  0  0  0  0  0  0  0  0
   -4.5487   -0.3611   -0.2395 H   0  0  0  0  0  0  0  0  0  0  0  0
   -3.6312    0.5886    1.9432 H   0  0  0  0  0  0  0  0  0  0  0  0
   -2.4491   -0.7259    1.9805 H   0  0  0  0  0  0  0  0  0  0  0  0
   -4.2009   -2.4108    1.9907 H   0  0  0  0  0  0  0  0  0  0  0  0
   -4.3873   -1.2153    3.3180 H   0  0  0  0  0  0  0  0  0  0  0  0
   -6.4949   -1.8679    2.3947 H   0  0  0  0  0  0  0  0  0  0  0  0
   -6.0527   -1.2897    0.7518 H   0  0  0  0  0  0  0  0  0  0  0  0
   -5.8850    1.0594    1.7382 H   0  0  0  0  0  0  0  0  0  0  0  0
   -6.4665    0.3498    3.3023 H   0  0  0  0  0  0  0  0  0  0  0  0
   -9.7072    1.4973   -0.7405 H   0  0  0  0  0  0  0  0  0  0  0  0
   -9.9957   -0.1329   -0.0390 H   0  0  0  0  0  0  0  0  0  0  0  0
  -10.0159    2.3448    1.7388 H   0  0  0  0  0  0  0  0  0  0  0  0
  -10.8926    0.7646    1.9749 H   0  0  0  0  0  0  0  0  0  0  0  0
  -11.4657    1.9356    0.7305 H   0  0  0  0  0  0  0  0  0  0  0  0
  1  2  1  0
  2  3  1  0
  3  4  1  0
  4  5  2  0
  4  6  1  0
  6  7  1  0
  7  8  1  0
  8  9  1  0
  9 10  1  0
 10 11  1  0
 11 12  1  0
 12 13  2  0
 13 14  1  0
 14 15  2  0
 15 16  1  0
 16 17  1  0
 15 18  1  0
 18 19  2  0
 19 20  1  0
 20 21  2  0
 20 22  1  0
 22 23  2  0
 23 24  1  0
 24 25  2  0
 25 26  1  0
 26 27  2  0
 25 28  1  0
 28 29  2  0
 28 30  1  0
 30 31  2  0
 31 32  1  0
 32 33  1  0
 33 34  1  0
 32 35  2  0
 35 36  1  0
 36 37  2  0
 37 38  1  0
 38 39  1  0
 39 40  1  0
 40 41  1  0
 41 42  1  0
 42 43  1  0
 43 44  1  0
 44 45  2  0
 44 46  1  0
 46 47  1  0
 47 48  1  0
 27 11  1  0
 37 30  1  0
 19 12  1  0
 27 22  1  0
 38 24  1  0
  1 49  1  0
  1 50  1  0
  1 51  1  0
  2 52  1  0
  2 53  1  0
  6 54  1  0
  6 55  1  0
  7 56  1  0
  7 57  1  0
  8 58  1  0
  8 59  1  0
  9 60  1  0
  9 61  1  0
 10 62  1  0
 10 63  1  0
 13 64  1  0
 14 65  1  0
 17 66  1  0
 17 67  1  0
 17 68  1  0
 18 69  1  0
 23 70  1  0
 26 71  1  0
 31 72  1  0
 34 73  1  0
 34 74  1  0
 34 75  1  0
 35 76  1  0
 36 77  1  0
 39 78  1  0
 39 79  1  0
 40 80  1  0
 40 81  1  0
 41 82  1  0
 41 83  1  0
 42 84  1  0
 42 85  1  0
 43 86  1  0
 43 87  1  0
 47 88  1  0
 47 89  1  0
 48 90  1  0
 48 91  1  0
 48 92  1  0
M  END
