
     RDKit          3D

119126  0  0  0  0  0  0  0  0999 V2000
   -9.2326    0.2939   -2.9190 C   0  0  0  0  0  0  0  0  0  0  0  0
   -9.1113   -0.9494   -2.0268 C   0  0  0  0  0  0  0  0  0  0  0  0
   -9.6627   -0.6869   -0.6345 C   0  0  0  0  0  0  0  0  0  0  0  0
   -9.8034   -2.0622   -2.6961 C   0  0  0  0  0  0  0  0  0  0  0  0
   -7.6273   -1.1213   -1.8270 C   0  0  0  0  0  0  0  0  0  0  0  0
   -6.9854   -0.0986   -1.1039 C   0  0  0  0  0  0  0  0  0  0  0  0
   -5.6313   -0.1803   -0.8763 C   0  0  0  0  0  0  0  0  0  0  0  0
   -4.8237   -1.1914   -1.3061 C   0  0  0  0  0  0  0  0  0  0  0  0
   -3.3810   -1.2508   -1.1196 C   0  0  0  0  0  0  0  0  0  0  0  0
   -2.6187   -2.3048   -1.5000 C   0  0  0  0  0  0  0  0  0  0  0  0
   -1.2296   -2.0354   -1.1650 C   0  0  0  0  0  0  0  0  0  0  0  0
   -0.1048   -2.7539   -1.2664 C   0  0  0  0  0  0  0  0  0  0  0  0
   -0.1673   -4.0918   -1.8070 C   0  0  0  0  0  0  0  0  0  0  0  0
   -0.8463   -4.3926   -2.9456 C   0  0  0  0  0  0  0  0  0  0  0  0
   -0.9202   -5.7142   -3.4228 C   0  0  0  0  0  0  0  0  0  0  0  0
   -0.3043   -6.7325   -2.7441 C   0  0  0  0  0  0  0  0  0  0  0  0
    0.3870   -6.4298   -1.5878 C   0  0  0  0  0  0  0  0  0  0  0  0
    0.4531   -5.1404   -1.1300 C   0  0  0  0  0  0  0  0  0  0  0  0
    1.1766   -2.1872   -0.8410 C   0  0  0  0  0  0  0  0  0  0  0  0
    2.4431   -2.7330   -0.9404 C   0  0  0  0  0  0  0  0  0  0  0  0
    3.3405   -1.7599   -0.4766 C   0  0  0  0  0  0  0  0  0  0  0  0
    4.8066   -1.8687   -0.3787 C   0  0  0  0  0  0  0  0  0  0  0  0
    5.4132   -1.9292    0.8581 C   0  0  0  0  0  0  0  0  0  0  0  0
    6.7867   -2.0194    1.0500 C   0  0  0  0  0  0  0  0  0  0  0  0
    7.6137   -2.0523   -0.0737 C   0  0  0  0  0  0  0  0  0  0  0  0
    9.0856   -2.1246    0.1014 C   0  0  0  0  0  0  0  0  0  0  0  0
    9.5617   -0.7408    0.4716 C   0  0  0  0  0  0  0  0  0  0  0  0
    9.7351   -2.6748   -1.1267 C   0  0  0  0  0  0  0  0  0  0  0  0
    9.3950   -3.0975    1.2552 C   0  0  0  0  0  0  0  0  0  0  0  0
    7.0192   -1.9930   -1.3032 C   0  0  0  0  0  0  0  0  0  0  0  0
    5.6415   -1.9027   -1.4687 C   0  0  0  0  0  0  0  0  0  0  0  0
    2.5583   -0.6819   -0.1250 C   0  0  0  0  0  0  0  0  0  0  0  0
    3.1075    0.5712    0.3534 C   0  0  0  0  0  0  0  0  0  0  0  0
    3.6093    0.8169    1.5941 C   0  0  0  0  0  0  0  0  0  0  0  0
    4.1261    2.0367    1.9650 C   0  0  0  0  0  0  0  0  0  0  0  0
    4.1695    3.0854    1.1115 C   0  0  0  0  0  0  0  0  0  0  0  0
    4.7261    4.4256    1.4435 C   0  0  0  0  0  0  0  0  0  0  0  0
    5.0524    5.1441    0.1534 C   0  0  0  0  0  0  0  0  0  0  0  0
    5.9658    4.3733    2.2750 C   0  0  0  0  0  0  0  0  0  0  0  0
    3.6688    5.2308    2.1845 C   0  0  0  0  0  0  0  0  0  0  0  0
    3.6603    2.8762   -0.1811 C   0  0  0  0  0  0  0  0  0  0  0  0
    3.1481    1.6521   -0.5368 C   0  0  0  0  0  0  0  0  0  0  0  0
    1.2369   -0.9516   -0.3465 N   0  0  0  0  0  0  0  0  0  0  0  0
    0.0332   -0.0744   -0.0592 B   0  0  0  0  0  4  0  0  0  0  0  0
    0.2149    1.2418   -0.6998 F   0  0  0  0  0  0  0  0  0  0  0  0
   -0.1636    0.1840    1.3588 F   0  0  0  0  0  0  0  0  0  0  0  0
   -1.2452   -0.7543   -0.5660 N   0  0  0  0  0  4  0  0  0  0  0  0
   -2.4700   -0.2935   -0.5287 C   0  0  0  0  0  0  0  0  0  0  0  0
   -2.8641    0.9170    0.2001 C   0  0  0  0  0  0  0  0  0  0  0  0
   -3.2294    2.1173   -0.3155 C   0  0  0  0  0  0  0  0  0  0  0  0
   -3.7530    3.1094    0.5136 C   0  0  0  0  0  0  0  0  0  0  0  0
   -3.8979    2.8756    1.8526 C   0  0  0  0  0  0  0  0  0  0  0  0
   -4.5317    3.8311    2.8243 C   0  0  0  0  0  0  0  0  0  0  0  0
   -4.9894    5.0986    2.2027 C   0  0  0  0  0  0  0  0  0  0  0  0
   -5.7782    3.0675    3.3153 C   0  0  0  0  0  0  0  0  0  0  0  0
   -3.6703    4.0531    4.0175 C   0  0  0  0  0  0  0  0  0  0  0  0
   -3.5305    1.6652    2.4233 C   0  0  0  0  0  0  0  0  0  0  0  0
   -3.0238    0.7180    1.5876 C   0  0  0  0  0  0  0  0  0  0  0  0
   -5.4828   -2.1964   -2.0220 C   0  0  0  0  0  0  0  0  0  0  0  0
   -6.8684   -2.1427   -2.2655 C   0  0  0  0  0  0  0  0  0  0  0  0
  -10.0538    0.2480   -3.6254 H   0  0  0  0  0  0  0  0  0  0  0  0
   -8.2633    0.4171   -3.4921 H   0  0  0  0  0  0  0  0  0  0  0  0
   -9.3441    1.1433   -2.2274 H   0  0  0  0  0  0  0  0  0  0  0  0
  -10.1739    0.2825   -0.6617 H   0  0  0  0  0  0  0  0  0  0  0  0
   -8.8272   -0.5551    0.1129 H   0  0  0  0  0  0  0  0  0  0  0  0
  -10.2439   -1.5435   -0.2889 H   0  0  0  0  0  0  0  0  0  0  0  0
   -9.7745   -3.0215   -2.1553 H   0  0  0  0  0  0  0  0  0  0  0  0
  -10.8846   -1.7861   -2.7785 H   0  0  0  0  0  0  0  0  0  0  0  0
   -9.4715   -2.1738   -3.7579 H   0  0  0  0  0  0  0  0  0  0  0  0
   -7.5913    0.7224   -0.7579 H   0  0  0  0  0  0  0  0  0  0  0  0
   -5.2297    0.6136   -0.2850 H   0  0  0  0  0  0  0  0  0  0  0  0
   -3.0038   -3.1867   -1.9733 H   0  0  0  0  0  0  0  0  0  0  0  0
   -1.3518   -3.6348   -3.5358 H   0  0  0  0  0  0  0  0  0  0  0  0
   -1.4584   -5.9658   -4.3196 H   0  0  0  0  0  0  0  0  0  0  0  0
   -0.3349   -7.7771   -3.0780 H   0  0  0  0  0  0  0  0  0  0  0  0
    0.8762   -7.2344   -1.0456 H   0  0  0  0  0  0  0  0  0  0  0  0
    0.9835   -4.8825   -0.2257 H   0  0  0  0  0  0  0  0  0  0  0  0
    2.7334   -3.7148   -1.3035 H   0  0  0  0  0  0  0  0  0  0  0  0
    4.7813   -1.9203    1.7308 H   0  0  0  0  0  0  0  0  0  0  0  0
    7.2736   -2.0603    2.0066 H   0  0  0  0  0  0  0  0  0  0  0  0
   10.5216   -0.7492    1.0085 H   0  0  0  0  0  0  0  0  0  0  0  0
    8.7608   -0.2933    1.0809 H   0  0  0  0  0  0  0  0  0  0  0  0
    9.5801   -0.1381   -0.4611 H   0  0  0  0  0  0  0  0  0  0  0  0
    9.1941   -3.6337   -1.3858 H   0  0  0  0  0  0  0  0  0  0  0  0
   10.7873   -2.9912   -0.9602 H   0  0  0  0  0  0  0  0  0  0  0  0
    9.6944   -2.0167   -1.9950 H   0  0  0  0  0  0  0  0  0  0  0  0
    8.5432   -3.7571    1.4142 H   0  0  0  0  0  0  0  0  0  0  0  0
   10.2686   -3.7222    0.9868 H   0  0  0  0  0  0  0  0  0  0  0  0
    9.6801   -2.5342    2.1728 H   0  0  0  0  0  0  0  0  0  0  0  0
    7.6025   -2.0103   -2.2118 H   0  0  0  0  0  0  0  0  0  0  0  0
    5.1903   -1.8454   -2.4463 H   0  0  0  0  0  0  0  0  0  0  0  0
    3.5879    0.0095    2.3129 H   0  0  0  0  0  0  0  0  0  0  0  0
    4.5025    2.1362    2.9665 H   0  0  0  0  0  0  0  0  0  0  0  0
    4.1146    5.5407   -0.2746 H   0  0  0  0  0  0  0  0  0  0  0  0
    5.5543    4.4747   -0.5638 H   0  0  0  0  0  0  0  0  0  0  0  0
    5.7240    6.0222    0.3485 H   0  0  0  0  0  0  0  0  0  0  0  0
    6.7360    5.0849    1.8893 H   0  0  0  0  0  0  0  0  0  0  0  0
    5.7564    4.7611    3.3157 H   0  0  0  0  0  0  0  0  0  0  0  0
    6.4363    3.3772    2.3339 H   0  0  0  0  0  0  0  0  0  0  0  0
    3.9026    6.2812    2.1762 H   0  0  0  0  0  0  0  0  0  0  0  0
    2.6821    5.0863    1.6908 H   0  0  0  0  0  0  0  0  0  0  0  0
    3.6512    4.8455    3.2420 H   0  0  0  0  0  0  0  0  0  0  0  0
    3.6797    3.7110   -0.8769 H   0  0  0  0  0  0  0  0  0  0  0  0
    2.7746    1.5465   -1.5511 H   0  0  0  0  0  0  0  0  0  0  0  0
   -3.0977    2.2969   -1.3752 H   0  0  0  0  0  0  0  0  0  0  0  0
   -4.0507    4.0849    0.1184 H   0  0  0  0  0  0  0  0  0  0  0  0
   -5.4948    5.6893    3.0040 H   0  0  0  0  0  0  0  0  0  0  0  0
   -4.1329    5.6409    1.7688 H   0  0  0  0  0  0  0  0  0  0  0  0
   -5.7542    4.8627    1.4318 H   0  0  0  0  0  0  0  0  0  0  0  0
   -5.4434    2.3839    4.1269 H   0  0  0  0  0  0  0  0  0  0  0  0
   -6.5066    3.7885    3.6850 H   0  0  0  0  0  0  0  0  0  0  0  0
   -6.2017    2.4764    2.4943 H   0  0  0  0  0  0  0  0  0  0  0  0
   -3.6968    3.1575    4.6742 H   0  0  0  0  0  0  0  0  0  0  0  0
   -2.6188    4.2814    3.8037 H   0  0  0  0  0  0  0  0  0  0  0  0
   -4.1384    4.8736    4.6304 H   0  0  0  0  0  0  0  0  0  0  0  0
   -3.6335    1.4548    3.4765 H   0  0  0  0  0  0  0  0  0  0  0  0
   -2.7248   -0.2533    2.0357 H   0  0  0  0  0  0  0  0  0  0  0  0
   -4.9076   -3.0294   -2.3859 H   0  0  0  0  0  0  0  0  0  0  0  0
   -7.3523   -2.9344   -2.8196 H   0  0  0  0  0  0  0  0  0  0  0  0
  1  2  1  0
  2  3  1  0
  2  4  1  0
  2  5  1  0
  5  6  2  0
  6  7  1  0
  7  8  2  0
  8  9  1  0
  9 10  2  0
 10 11  1  0
 11 12  2  0
 12 13  1  0
 13 14  2  0
 14 15  1  0
 15 16  2  0
 16 17  1  0
 17 18  2  0
 12 19  1  0
 19 20  2  0
 20 21  1  0
 21 22  1  0
 22 23  2  0
 23 24  1  0
 24 25  2  0
 25 26  1  0
 26 27  1  0
 26 28  1  0
 26 29  1  0
 25 30  1  0
 30 31  2  0
 21 32  2  0
 32 33  1  0
 33 34  2  0
 34 35  1  0
 35 36  2  0
 36 37  1  0
 37 38  1  0
 37 39  1  0
 37 40  1  0
 36 41  1  0
 41 42  2  0
 32 43  1  0
 43 44  1  0
 44 45  1  0
 44 46  1  0
 44 47  1  0
 47 48  2  0
 48 49  1  0
 49 50  2  0
 50 51  1  0
 51 52  2  0
 52 53  1  0
 53 54  1  0
 53 55  1  0
 53 56  1  0
 52 57  1  0
 57 58  2  0
  8 59  1  0
 59 60  2  0
 60  5  1  0
 48  9  1  0
 58 49  1  0
 47 11  1  0
 18 13  1  0
 43 19  1  0
 31 22  1  0
 42 33  1  0
  1 61  1  0
  1 62  1  0
  1 63  1  0
  3 64  1  0
  3 65  1  0
  3 66  1  0
  4 67  1  0
  4 68  1  0
  4 69  1  0
  6 70  1  0
  7 71  1  0
 10 72  1  0
 14 73  1  0
 15 74  1  0
 16 75  1  0
 17 76  1  0
 18 77  1  0
 20 78  1  0
 23 79  1  0
 24 80  1  0
 27 81  1  0
 27 82  1  0
 27 83  1  0
 28 84  1  0
 28 85  1  0
 28 86  1  0
 29 87  1  0
 29 88  1  0
 29 89  1  0
 30 90  1  0
 31 91  1  0
 34 92  1  0
 35 93  1  0
 38 94  1  0
 38 95  1  0
 38 96  1  0
 39 97  1  0
 39 98  1  0
 39 99  1  0
 40100  1  0
 40101  1  0
 40102  1  0
 41103  1  0
 42104  1  0
 50105  1  0
 51106  1  0
 54107  1  0
 54108  1  0
 54109  1  0
 55110  1  0
 55111  1  0
 55112  1  0
 56113  1  0
 56114  1  0
 56115  1  0
 57116  1  0
 58117  1  0
 59118  1  0
 60119  1  0
M  CHG  2  44  -1  47   1
M  END
