
     RDKit          3D

 41 44  0  0  0  0  0  0  0  0999 V2000
    0.9391    0.9876   -1.1839 C   0  0  0  0  0  0  0  0  0  0  0  0
   -0.3150    0.6887   -0.7596 C   0  0  0  0  0  0  0  0  0  0  0  0
   -1.3240    1.7462   -0.6124 C   0  0  0  0  0  0  0  0  0  0  0  0
   -2.6588    1.5613   -0.6704 C   0  0  0  0  0  0  0  0  0  0  0  0
   -3.5249    2.6270   -0.4386 C   0  0  0  0  0  0  0  0  0  0  0  0
   -3.0642    3.8845   -0.1491 C   0  0  0  0  0  0  0  0  0  0  0  0
   -1.7011    4.0703   -0.0925 C   0  0  0  0  0  0  0  0  0  0  0  0
   -0.8608    3.0167   -0.3209 C   0  0  0  0  0  0  0  0  0  0  0  0
   -0.4043   -0.7297   -0.4974 C   0  0  0  0  0  0  0  0  0  0  0  0
   -1.4828   -1.5908   -0.0263 C   0  0  0  0  0  0  0  0  0  0  0  0
   -1.4685   -2.9304   -0.4130 C   0  0  0  0  0  0  0  0  0  0  0  0
   -2.3479   -3.8520    0.0455 C   0  0  0  0  0  0  0  0  0  0  0  0
   -3.3287   -3.4752    0.9504 C   0  0  0  0  0  0  0  0  0  0  0  0
   -3.3683   -2.1576    1.3533 C   0  0  0  0  0  0  0  0  0  0  0  0
   -2.4492   -1.2295    0.8654 C   0  0  0  0  0  0  0  0  0  0  0  0
    0.8126   -1.2580   -0.7930 C   0  0  0  0  0  0  0  0  0  0  0  0
    1.7355   -0.2178   -1.2498 C   0  0  0  0  0  0  0  0  0  0  0  0
    2.9222   -0.2027   -0.3547 C   0  0  0  0  0  0  0  0  0  0  0  0
    4.1871   -0.4292   -0.8512 C   0  0  0  0  0  0  0  0  0  0  0  0
    5.3241   -0.4269   -0.0663 C   0  0  0  0  0  0  0  0  0  0  0  0
    5.1648   -0.1841    1.2771 C   0  0  0  0  0  0  0  0  0  0  0  0
    3.9264    0.0484    1.8271 C   0  0  0  0  0  0  0  0  0  0  0  0
    2.7991    0.0373    0.9968 C   0  0  0  0  0  0  0  0  0  0  0  0
    1.2862    1.9819   -1.4373 H   0  0  0  0  0  0  0  0  0  0  0  0
   -3.1152    0.5900   -0.9398 H   0  0  0  0  0  0  0  0  0  0  0  0
   -4.5954    2.4421   -0.4919 H   0  0  0  0  0  0  0  0  0  0  0  0
   -3.7384    4.7271    0.0343 H   0  0  0  0  0  0  0  0  0  0  0  0
   -1.3176    5.0743    0.1383 H   0  0  0  0  0  0  0  0  0  0  0  0
    0.2150    3.2250   -0.2603 H   0  0  0  0  0  0  0  0  0  0  0  0
   -0.6984   -3.2692   -1.1351 H   0  0  0  0  0  0  0  0  0  0  0  0
   -2.3085   -4.8750   -0.2751 H   0  0  0  0  0  0  0  0  0  0  0  0
   -4.0565   -4.1721    1.3473 H   0  0  0  0  0  0  0  0  0  0  0  0
   -4.1260   -1.8141    2.0674 H   0  0  0  0  0  0  0  0  0  0  0  0
   -2.5184   -0.2038    1.2693 H   0  0  0  0  0  0  0  0  0  0  0  0
    1.0538   -2.3083   -0.6970 H   0  0  0  0  0  0  0  0  0  0  0  0
    2.0697   -0.4296   -2.2892 H   0  0  0  0  0  0  0  0  0  0  0  0
    4.3210   -0.6215   -1.9096 H   0  0  0  0  0  0  0  0  0  0  0  0
    6.3160   -0.6127   -0.5044 H   0  0  0  0  0  0  0  0  0  0  0  0
    6.0367   -0.1774    1.9083 H   0  0  0  0  0  0  0  0  0  0  0  0
    3.8315    0.2359    2.8836 H   0  0  0  0  0  0  0  0  0  0  0  0
    1.8321    0.2236    1.4547 H   0  0  0  0  0  0  0  0  0  0  0  0
  1  2  2  0
  2  3  1  0
  3  4  2  0
  4  5  1  0
  5  6  2  0
  6  7  1  0
  7  8  2  0
  2  9  1  0
  9 10  1  0
 10 11  2  0
 11 12  1  0
 12 13  2  0
 13 14  1  0
 14 15  2  0
  9 16  2  0
 16 17  1  0
 17 18  1  0
 18 19  2  0
 19 20  1  0
 20 21  2  0
 21 22  1  0
 22 23  2  0
 17  1  1  0
 23 18  1  0
  8  3  1  0
 15 10  1  0
  1 24  1  0
  4 25  1  0
  5 26  1  0
  6 27  1  0
  7 28  1  0
  8 29  1  0
 11 30  1  0
 12 31  1  0
 13 32  1  0
 14 33  1  0
 15 34  1  0
 16 35  1  0
 17 36  1  0
 19 37  1  0
 20 38  1  0
 21 39  1  0
 22 40  1  0
 23 41  1  0
M  END
