
     RDKit          3D

 40 44  0  0  0  0  0  0  0  0999 V2000
    2.1446   -2.2165   -1.3551 F   0  0  0  0  0  0  0  0  0  0  0  0
    2.3704   -1.3206   -0.2469 B   0  0  0  0  0  4  0  0  0  0  0  0
    2.6065   -2.0343    0.9955 F   0  0  0  0  0  0  0  0  0  0  0  0
    1.2224   -0.3288   -0.1295 N   0  0  0  0  0  0  0  0  0  0  0  0
    1.6769    0.9253   -0.2616 C   0  0  0  0  0  0  0  0  0  0  0  0
    0.6181    1.7422   -0.1478 N   0  0  0  0  0  0  0  0  0  0  0  0
   -0.5263    1.0206    0.0584 C   0  0  0  0  0  0  0  0  0  0  0  0
   -1.8647    1.5992    0.2351 C   0  0  0  0  0  0  0  0  0  0  0  0
   -2.8823    1.3731   -0.6650 C   0  0  0  0  0  0  0  0  0  0  0  0
   -4.1351    1.9467   -0.4506 C   0  0  0  0  0  0  0  0  0  0  0  0
   -4.3654    2.7406    0.6571 C   0  0  0  0  0  0  0  0  0  0  0  0
   -3.3560    2.9713    1.5591 C   0  0  0  0  0  0  0  0  0  0  0  0
   -2.1401    2.3983    1.3261 C   0  0  0  0  0  0  0  0  0  0  0  0
   -0.1268   -0.2922    0.0670 C   0  0  0  0  0  0  0  0  0  0  0  0
   -1.0112   -1.4398    0.2461 C   0  0  0  0  0  0  0  0  0  0  0  0
   -1.8443   -1.9068   -0.7460 C   0  0  0  0  0  0  0  0  0  0  0  0
   -2.6749   -3.0010   -0.5413 C   0  0  0  0  0  0  0  0  0  0  0  0
   -2.7021   -3.6637    0.6558 C   0  0  0  0  0  0  0  0  0  0  0  0
   -1.8753   -3.2144    1.6677 C   0  0  0  0  0  0  0  0  0  0  0  0
   -1.0528   -2.1281    1.4610 C   0  0  0  0  0  0  0  0  0  0  0  0
    3.1245    0.9145   -0.4769 C   0  0  0  0  0  0  0  0  0  0  0  0
    4.0401    1.9282   -0.6675 C   0  0  0  0  0  0  0  0  0  0  0  0
    5.3795    1.6400   -0.8542 C   0  0  0  0  0  0  0  0  0  0  0  0
    5.7994    0.3367   -0.8496 C   0  0  0  0  0  0  0  0  0  0  0  0
    4.8613   -0.6572   -0.6566 C   0  0  0  0  0  0  0  0  0  0  0  0
    3.5515   -0.3770   -0.4739 N   0  0  0  0  0  4  0  0  0  0  0  0
   -2.7665    0.7708   -1.5453 H   0  0  0  0  0  0  0  0  0  0  0  0
   -4.9440    1.7672   -1.1640 H   0  0  0  0  0  0  0  0  0  0  0  0
   -5.3339    3.1979    0.8443 H   0  0  0  0  0  0  0  0  0  0  0  0
   -3.5735    3.6021    2.4212 H   0  0  0  0  0  0  0  0  0  0  0  0
   -1.3514    2.5848    2.0444 H   0  0  0  0  0  0  0  0  0  0  0  0
   -1.8519   -1.4081   -1.7292 H   0  0  0  0  0  0  0  0  0  0  0  0
   -3.3078   -3.3250   -1.3601 H   0  0  0  0  0  0  0  0  0  0  0  0
   -3.3268   -4.5155    0.8644 H   0  0  0  0  0  0  0  0  0  0  0  0
   -1.8454   -3.6982    2.6529 H   0  0  0  0  0  0  0  0  0  0  0  0
   -0.4167   -1.7927    2.2627 H   0  0  0  0  0  0  0  0  0  0  0  0
    3.7543    2.9697   -0.6800 H   0  0  0  0  0  0  0  0  0  0  0  0
    6.0730    2.4594   -1.0017 H   0  0  0  0  0  0  0  0  0  0  0  0
    6.8483    0.1307   -0.9970 H   0  0  0  0  0  0  0  0  0  0  0  0
    5.2045   -1.6995   -0.6539 H   0  0  0  0  0  0  0  0  0  0  0  0
  1  2  1  0
  2  3  1  0
  2  4  1  0
  4  5  1  0
  5  6  2  0
  6  7  1  0
  7  8  1  0
  8  9  2  0
  9 10  1  0
 10 11  2  0
 11 12  1  0
 12 13  2  0
  7 14  2  0
 14 15  1  0
 15 16  2  0
 16 17  1  0
 17 18  2  0
 18 19  1  0
 19 20  2  0
  5 21  1  0
 21 22  2  0
 22 23  1  0
 23 24  2  0
 24 25  1  0
 25 26  2  0
 26  2  1  0
 14  4  1  0
 20 15  1  0
 26 21  1  0
 13  8  1  0
  9 27  1  0
 10 28  1  0
 11 29  1  0
 12 30  1  0
 13 31  1  0
 16 32  1  0
 17 33  1  0
 18 34  1  0
 19 35  1  0
 20 36  1  0
 22 37  1  0
 23 38  1  0
 24 39  1  0
 25 40  1  0
M  CHG  2   2  -1  26   1
M  END
