
     RDKit          3D

 30 32  0  0  0  0  0  0  0  0999 V2000
   -3.6483   -2.7798    0.3144 O   0  0  0  0  0  0  0  0  0  0  0  0
   -2.4046   -2.4636    0.2544 C   0  0  0  0  0  0  0  0  0  0  0  0
   -1.5628   -3.5447    0.2757 O   0  0  0  0  0  0  0  0  0  0  0  0
   -2.0819   -1.0561    0.1754 C   0  0  0  0  0  0  0  0  0  0  0  0
   -3.1354   -0.1298    0.1650 C   0  0  0  0  0  0  0  0  0  0  0  0
   -2.8927    1.1950    0.0922 C   0  0  0  0  0  0  0  0  0  0  0  0
   -1.5916    1.7271    0.0230 C   0  0  0  0  0  0  0  0  0  0  0  0
   -1.4419    3.1681   -0.0535 C   0  0  0  0  0  0  0  0  0  0  0  0
   -0.3538    3.7380   -0.1236 O   0  0  0  0  0  0  0  0  0  0  0  0
   -2.5968    3.9820   -0.0486 O   0  0  0  0  0  0  0  0  0  0  0  0
   -0.5745    0.8090    0.0342 C   0  0  0  0  0  0  0  0  0  0  0  0
    0.7178    1.2604   -0.0302 C   0  0  0  0  0  0  0  0  0  0  0  0
    1.8261    0.4012   -0.0245 C   0  0  0  0  0  0  0  0  0  0  0  0
    3.1218    0.8720   -0.0900 C   0  0  0  0  0  0  0  0  0  0  0  0
    4.1839   -0.0028   -0.0820 C   0  0  0  0  0  0  0  0  0  0  0  0
    3.9736   -1.3614   -0.0086 C   0  0  0  0  0  0  0  0  0  0  0  0
    2.6584   -1.8245    0.0572 C   0  0  0  0  0  0  0  0  0  0  0  0
    1.5941   -0.9469    0.0491 C   0  0  0  0  0  0  0  0  0  0  0  0
    0.2783   -1.4198    0.1154 C   0  0  0  0  0  0  0  0  0  0  0  0
   -0.7890   -0.5654    0.1086 C   0  0  0  0  0  0  0  0  0  0  0  0
   -1.8040   -4.4809   -0.0314 H   0  0  0  0  0  0  0  0  0  0  0  0
   -4.1532   -0.5493    0.2192 H   0  0  0  0  0  0  0  0  0  0  0  0
   -3.7340    1.8815    0.0865 H   0  0  0  0  0  0  0  0  0  0  0  0
   -2.4775    4.9406    0.2515 H   0  0  0  0  0  0  0  0  0  0  0  0
    0.9987    2.2939   -0.0897 H   0  0  0  0  0  0  0  0  0  0  0  0
    3.2946    1.9411   -0.1480 H   0  0  0  0  0  0  0  0  0  0  0  0
    5.2115    0.3450   -0.1327 H   0  0  0  0  0  0  0  0  0  0  0  0
    4.7758   -2.0752    0.0000 H   0  0  0  0  0  0  0  0  0  0  0  0
    2.4370   -2.8796    0.1161 H   0  0  0  0  0  0  0  0  0  0  0  0
    0.1702   -2.4752    0.1708 H   0  0  0  0  0  0  0  0  0  0  0  0
  1  2  2  0
  2  3  1  0
  2  4  1  0
  4  5  2  0
  5  6  1  0
  6  7  2  0
  7  8  1  0
  8  9  2  0
  8 10  1  0
  7 11  1  0
 11 12  2  0
 12 13  1  0
 13 14  2  0
 14 15  1  0
 15 16  2  0
 16 17  1  0
 17 18  2  0
 18 19  1  0
 19 20  2  0
 20  4  1  0
 20 11  1  0
 18 13  1  0
  3 21  1  0
  5 22  1  0
  6 23  1  0
 10 24  1  0
 12 25  1  0
 14 26  1  0
 15 27  1  0
 16 28  1  0
 17 29  1  0
 19 30  1  0
M  END
