
     RDKit          3D

 64 70  0  0  0  0  0  0  0  0999 V2000
   -1.7383    4.6371    1.3691 C   0  0  0  0  0  0  0  0  0  0  0  0
   -1.5861    3.7483    0.1372 C   0  0  0  0  0  0  0  0  0  0  0  0
   -1.9401    2.3400    0.4915 C   0  0  0  0  0  0  0  0  0  0  0  0
   -1.7621    1.5025   -0.8052 C   0  0  0  0  0  0  0  0  0  0  0  0
   -2.0821    0.1257   -0.5729 N   0  0  0  0  0  0  0  0  0  0  0  0
   -1.1743   -0.8054   -0.2784 C   0  0  0  0  0  0  0  0  0  0  0  0
    0.2989   -0.8131   -0.1705 C   0  0  0  0  0  0  0  0  0  0  0  0
    1.1635   -0.0536   -0.8836 C   0  0  0  0  0  0  0  0  0  0  0  0
    2.5397   -0.0787   -0.6261 C   0  0  0  0  0  0  0  0  0  0  0  0
    3.0778   -0.8741    0.3568 C   0  0  0  0  0  0  0  0  0  0  0  0
    4.5259   -0.8889    0.6150 C   0  0  0  0  0  0  0  0  0  0  0  0
    5.1061   -1.6417    1.5570 N   0  0  0  0  0  0  0  0  0  0  0  0
    6.4226   -1.4085    1.5148 N   0  0  0  0  0  0  0  0  0  0  0  0
    6.6465   -0.5091    0.5423 C   0  0  0  0  0  0  0  0  0  0  0  0
    7.9540    0.0246    0.1613 C   0  0  0  0  0  0  0  0  0  0  0  0
    8.0621    0.9478   -0.8572 C   0  0  0  0  0  0  0  0  0  0  0  0
    9.2961    1.4530   -1.2185 C   0  0  0  0  0  0  0  0  0  0  0  0
   10.4448    1.0476   -0.5718 C   0  0  0  0  0  0  0  0  0  0  0  0
   10.3177    0.1237    0.4443 C   0  0  0  0  0  0  0  0  0  0  0  0
    9.0845   -0.3850    0.8097 C   0  0  0  0  0  0  0  0  0  0  0  0
    5.4725   -0.2322    0.0356 O   0  0  0  0  0  0  0  0  0  0  0  0
    2.2209   -1.6578    1.0939 C   0  0  0  0  0  0  0  0  0  0  0  0
    0.8879   -1.6150    0.8258 C   0  0  0  0  0  0  0  0  0  0  0  0
   -1.8214   -1.9774    0.0087 N   0  0  0  0  0  0  0  0  0  0  0  0
   -3.1277   -1.7863   -0.1096 C   0  0  0  0  0  0  0  0  0  0  0  0
   -4.2207   -2.6199    0.0588 C   0  0  0  0  0  0  0  0  0  0  0  0
   -3.9366   -3.9326    0.4302 C   0  0  0  0  0  0  0  0  0  0  0  0
   -4.9643   -4.8286    0.6192 C   0  0  0  0  0  0  0  0  0  0  0  0
   -6.2653   -4.3698    0.4260 C   0  0  0  0  0  0  0  0  0  0  0  0
   -6.5370   -3.0502    0.0533 C   0  0  0  0  0  0  0  0  0  0  0  0
   -5.4999   -2.1784   -0.1286 C   0  0  0  0  0  0  0  0  0  0  0  0
   -5.6554   -0.8632   -0.4939 C   0  0  0  0  0  0  0  0  0  0  0  0
   -6.9419   -0.4000   -0.6904 C   0  0  0  0  0  0  0  0  0  0  0  0
   -7.1748    0.9242   -1.0648 C   0  0  0  0  0  0  0  0  0  0  0  0
   -6.1099    1.7525   -1.2332 C   0  0  0  0  0  0  0  0  0  0  0  0
   -4.7939    1.3209   -1.0437 C   0  0  0  0  0  0  0  0  0  0  0  0
   -4.5842    0.0189   -0.6766 C   0  0  0  0  0  0  0  0  0  0  0  0
   -3.3002   -0.4467   -0.4819 C   0  0  0  0  0  0  0  0  0  0  0  0
   -2.7225    4.4023    1.8072 H   0  0  0  0  0  0  0  0  0  0  0  0
   -1.6972    5.7076    1.0647 H   0  0  0  0  0  0  0  0  0  0  0  0
   -0.8919    4.4720    2.0672 H   0  0  0  0  0  0  0  0  0  0  0  0
   -2.1585    4.1301   -0.7144 H   0  0  0  0  0  0  0  0  0  0  0  0
   -0.5140    3.8056   -0.1400 H   0  0  0  0  0  0  0  0  0  0  0  0
   -1.1772    1.9942    1.2425 H   0  0  0  0  0  0  0  0  0  0  0  0
   -2.9110    2.1901    0.9507 H   0  0  0  0  0  0  0  0  0  0  0  0
   -0.6199    1.6220   -0.9050 H   0  0  0  0  0  0  0  0  0  0  0  0
   -2.0846    1.9804   -1.7075 H   0  0  0  0  0  0  0  0  0  0  0  0
    0.8506    0.5589   -1.7201 H   0  0  0  0  0  0  0  0  0  0  0  0
    3.2111    0.5363   -1.2047 H   0  0  0  0  0  0  0  0  0  0  0  0
    7.1605    1.2596   -1.3577 H   0  0  0  0  0  0  0  0  0  0  0  0
    9.4119    2.1785   -2.0138 H   0  0  0  0  0  0  0  0  0  0  0  0
   11.4183    1.4568   -0.8688 H   0  0  0  0  0  0  0  0  0  0  0  0
   11.1982   -0.1940    0.9478 H   0  0  0  0  0  0  0  0  0  0  0  0
    8.9689   -1.1144    1.6093 H   0  0  0  0  0  0  0  0  0  0  0  0
    2.6679   -2.2755    1.8603 H   0  0  0  0  0  0  0  0  0  0  0  0
    0.2209   -2.2282    1.4064 H   0  0  0  0  0  0  0  0  0  0  0  0
   -2.9295   -4.2814    0.5780 H   0  0  0  0  0  0  0  0  0  0  0  0
   -4.7782   -5.8560    0.9079 H   0  0  0  0  0  0  0  0  0  0  0  0
   -7.0526   -5.0953    0.5814 H   0  0  0  0  0  0  0  0  0  0  0  0
   -7.5695   -2.8046   -0.0677 H   0  0  0  0  0  0  0  0  0  0  0  0
   -7.7631   -1.0713   -0.5516 H   0  0  0  0  0  0  0  0  0  0  0  0
   -8.2050    1.2443   -1.2082 H   0  0  0  0  0  0  0  0  0  0  0  0
   -6.2989    2.7879   -1.5264 H   0  0  0  0  0  0  0  0  0  0  0  0
   -4.0401    2.0436   -1.2004 H   0  0  0  0  0  0  0  0  0  0  0  0
  1  2  1  0
  2  3  1  0
  3  4  1  0
  4  5  1  0
  5  6  1  0
  6  7  1  0
  7  8  2  0
  8  9  1  0
  9 10  2  0
 10 11  1  0
 11 12  2  0
 12 13  1  0
 13 14  2  0
 14 15  1  0
 15 16  2  0
 16 17  1  0
 17 18  2  0
 18 19  1  0
 19 20  2  0
 14 21  1  0
 10 22  1  0
 22 23  2  0
  6 24  2  0
 24 25  1  0
 25 26  2  0
 26 27  1  0
 27 28  2  0
 28 29  1  0
 29 30  2  0
 30 31  1  0
 31 32  2  0
 32 33  1  0
 33 34  2  0
 34 35  1  0
 35 36  2  0
 36 37  1  0
 37 38  2  0
 38  5  1  0
 23  7  1  0
 38 25  1  0
 21 11  1  0
 31 26  1  0
 37 32  1  0
 20 15  1  0
  1 39  1  0
  1 40  1  0
  1 41  1  0
  2 42  1  0
  2 43  1  0
  3 44  1  0
  3 45  1  0
  4 46  1  0
  4 47  1  0
  8 48  1  0
  9 49  1  0
 16 50  1  0
 17 51  1  0
 18 52  1  0
 19 53  1  0
 20 54  1  0
 22 55  1  0
 23 56  1  0
 27 57  1  0
 28 58  1  0
 29 59  1  0
 30 60  1  0
 33 61  1  0
 34 62  1  0
 35 63  1  0
 36 64  1  0
M  END
