
     RDKit          3D

 26 27  0  0  0  0  0  0  0  0999 V2000
    0.5537   -1.7994    0.8585 C   0  0  0  0  0  0  0  0  0  0  0  0
   -0.7245   -1.7233    0.8906 C   0  0  0  0  0  0  0  0  0  0  0  0
   -1.5743   -0.6787    0.4856 C   0  0  0  0  0  0  0  0  0  0  0  0
   -1.3410    0.2241   -0.5160 C   0  0  0  0  0  0  0  0  0  0  0  0
   -2.2233    1.2810   -0.7838 C   0  0  0  0  0  0  0  0  0  0  0  0
   -3.3658    1.4359   -0.0334 C   0  0  0  0  0  0  0  0  0  0  0  0
   -3.6069    0.5464    0.9585 C   0  0  0  0  0  0  0  0  0  0  0  0
   -2.7475   -0.4762    1.2148 C   0  0  0  0  0  0  0  0  0  0  0  0
    1.4412   -0.7668    0.4040 C   0  0  0  0  0  0  0  0  0  0  0  0
    2.6126   -1.2188   -0.2322 C   0  0  0  0  0  0  0  0  0  0  0  0
    3.6252   -0.3761   -0.6057 C   0  0  0  0  0  0  0  0  0  0  0  0
    3.5204    0.9854   -0.3594 C   0  0  0  0  0  0  0  0  0  0  0  0
    2.3692    1.4107    0.2649 C   0  0  0  0  0  0  0  0  0  0  0  0
    1.3355    0.5855    0.6524 C   0  0  0  0  0  0  0  0  0  0  0  0
    1.0458   -2.7703    1.2262 H   0  0  0  0  0  0  0  0  0  0  0  0
   -1.2573   -2.6382    1.3005 H   0  0  0  0  0  0  0  0  0  0  0  0
   -0.4777    0.1148   -1.1749 H   0  0  0  0  0  0  0  0  0  0  0  0
   -2.0039    1.9821   -1.5886 H   0  0  0  0  0  0  0  0  0  0  0  0
   -4.0323    2.2684   -0.2665 H   0  0  0  0  0  0  0  0  0  0  0  0
   -4.5046    0.6374    1.5743 H   0  0  0  0  0  0  0  0  0  0  0  0
   -2.9598   -1.1694    2.0075 H   0  0  0  0  0  0  0  0  0  0  0  0
    2.7559   -2.2764   -0.4535 H   0  0  0  0  0  0  0  0  0  0  0  0
    4.5203   -0.7147   -1.0923 H   0  0  0  0  0  0  0  0  0  0  0  0
    4.2995    1.6877   -0.6401 H   0  0  0  0  0  0  0  0  0  0  0  0
    2.2602    2.4683    0.4699 H   0  0  0  0  0  0  0  0  0  0  0  0
    0.4796    0.9805    1.1847 H   0  0  0  0  0  0  0  0  0  0  0  0
  1  2  2  0
  2  3  1  0
  3  4  2  0
  4  5  1  0
  5  6  2  0
  6  7  1  0
  7  8  2  0
  1  9  1  0
  9 10  2  0
 10 11  1  0
 11 12  2  0
 12 13  1  0
 13 14  2  0
  8  3  1  0
 14  9  1  0
  1 15  1  0
  2 16  1  0
  4 17  1  0
  5 18  1  0
  6 19  1  0
  7 20  1  0
  8 21  1  0
 10 22  1  0
 11 23  1  0
 12 24  1  0
 13 25  1  0
 14 26  1  0
M  END
