
     RDKit          3D

 48 52  0  0  0  0  0  0  0  0999 V2000
    4.1855   -2.0142    0.2413 C   0  0  0  0  0  0  0  0  0  0  0  0
    3.2981   -1.4556   -0.8231 C   0  0  0  0  0  0  0  0  0  0  0  0
    3.5115   -1.8710   -2.1240 C   0  0  0  0  0  0  0  0  0  0  0  0
    2.7055   -1.3692   -3.1213 C   0  0  0  0  0  0  0  0  0  0  0  0
    1.6955   -0.4607   -2.8218 C   0  0  0  0  0  0  0  0  0  0  0  0
    0.7796    0.1815   -3.5561 N   0  0  0  0  0  0  0  0  0  0  0  0
    0.0447    0.9438   -2.7776 N   0  0  0  0  0  0  0  0  0  0  0  0
    0.4538    0.8216   -1.5371 N   0  0  0  0  0  0  0  0  0  0  0  0
   -0.0237    1.4429   -0.3574 C   0  0  0  0  0  0  0  0  0  0  0  0
    0.5444    2.5678    0.2314 C   0  0  0  0  0  0  0  0  0  0  0  0
    1.6899    3.2973   -0.2252 C   0  0  0  0  0  0  0  0  0  0  0  0
    2.6252    3.8822   -0.5908 N   0  0  0  0  0  0  0  0  0  0  0  0
   -0.1904    2.8827    1.3604 C   0  0  0  0  0  0  0  0  0  0  0  0
   -0.1021    3.8690    2.3184 C   0  0  0  0  0  0  0  0  0  0  0  0
    0.9096    4.8537    2.2788 N   0  0  0  0  0  0  0  0  0  0  0  0
   -0.9963    3.8969    3.3127 N   0  0  0  0  0  0  0  0  0  0  0  0
   -1.9814    2.9892    3.4060 C   0  0  0  0  0  0  0  0  0  0  0  0
   -2.0568    2.0353    2.4686 N   0  0  0  0  0  0  0  0  0  0  0  0
   -1.1849    1.9461    1.4328 C   0  0  0  0  0  0  0  0  0  0  0  0
   -1.0771    1.0736    0.3846 N   0  0  0  0  0  0  0  0  0  0  0  0
   -1.9831    0.0068    0.2193 C   0  0  1  0  0  0  0  0  0  0  0  0
   -2.0923   -0.5906   -1.1417 C   0  0  0  0  0  0  0  0  0  0  0  0
   -3.0968   -1.7158   -0.8161 C   0  0  2  0  0  0  0  0  0  0  0  0
   -4.3381   -1.1201   -0.6699 O   0  0  0  0  0  0  0  0  0  0  0  0
   -2.5442   -2.1237    0.5504 C   0  0  1  0  0  0  0  0  0  0  0  0
   -1.6850   -3.3680    0.3022 C   0  0  0  0  0  0  0  0  0  0  0  0
   -1.0468   -3.7819    1.4666 O   0  0  0  0  0  0  0  0  0  0  0  0
   -1.7221   -1.1262    0.9956 O   0  0  0  0  0  0  0  0  0  0  0  0
    1.4805   -0.0468   -1.5366 C   0  0  0  0  0  0  0  0  0  0  0  0
    2.2995   -0.5567   -0.5230 C   0  0  0  0  0  0  0  0  0  0  0  0
    3.9781   -3.0900    0.4239 H   0  0  0  0  0  0  0  0  0  0  0  0
    4.0980   -1.3995    1.1448 H   0  0  0  0  0  0  0  0  0  0  0  0
    5.2606   -1.9383   -0.0953 H   0  0  0  0  0  0  0  0  0  0  0  0
    4.2973   -2.5746   -2.3394 H   0  0  0  0  0  0  0  0  0  0  0  0
    2.8467   -1.6770   -4.1643 H   0  0  0  0  0  0  0  0  0  0  0  0
    0.7198    5.7700    1.8363 H   0  0  0  0  0  0  0  0  0  0  0  0
    1.8422    4.6803    2.6841 H   0  0  0  0  0  0  0  0  0  0  0  0
   -2.6714    3.0659    4.2322 H   0  0  0  0  0  0  0  0  0  0  0  0
   -3.0349    0.3062    0.5134 H   0  0  0  0  0  0  0  0  0  0  0  0
   -1.1760   -1.1758   -1.4395 H   0  0  0  0  0  0  0  0  0  0  0  0
   -2.4700    0.0624   -1.9224 H   0  0  0  0  0  0  0  0  0  0  0  0
   -3.0591   -2.5170   -1.5476 H   0  0  0  0  0  0  0  0  0  0  0  0
   -5.0750   -1.6077   -1.0851 H   0  0  0  0  0  0  0  0  0  0  0  0
   -3.3538   -2.3316    1.2573 H   0  0  0  0  0  0  0  0  0  0  0  0
   -2.3796   -4.1539   -0.0604 H   0  0  0  0  0  0  0  0  0  0  0  0
   -0.9303   -3.1861   -0.4667 H   0  0  0  0  0  0  0  0  0  0  0  0
   -1.1217   -3.0962    2.1889 H   0  0  0  0  0  0  0  0  0  0  0  0
    2.1268   -0.2272    0.4923 H   0  0  0  0  0  0  0  0  0  0  0  0
  1  2  1  0
  2  3  2  0
  3  4  1  0
  4  5  2  0
  5  6  1  0
  6  7  2  0
  7  8  1  0
  8  9  1  0
  9 10  2  0
 10 11  1  0
 11 12  3  0
 10 13  1  0
 13 14  2  0
 14 15  1  0
 14 16  1  0
 16 17  2  0
 17 18  1  0
 18 19  2  0
 19 20  1  0
 20 21  1  0
 21 22  1  0
 22 23  1  0
 23 24  1  0
 23 25  1  0
 25 26  1  0
 26 27  1  0
 25 28  1  0
  8 29  1  0
 29 30  2  0
 30  2  1  0
 29  5  1  0
 20  9  1  0
 28 21  1  0
 19 13  1  0
  1 31  1  0
  1 32  1  0
  1 33  1  0
  3 34  1  0
  4 35  1  0
 15 36  1  0
 15 37  1  0
 17 38  1  0
 21 39  1  1
 22 40  1  0
 22 41  1  0
 23 42  1  6
 24 43  1  0
 25 44  1  1
 26 45  1  0
 26 46  1  0
 27 47  1  0
 30 48  1  0
M  END
