
     RDKit          3D

 34 36  0  0  0  0  0  0  0  0999 V2000
   -4.3244    1.7429    1.4447 C   0  0  0  0  0  0  0  0  0  0  0  0
   -3.0927    0.9977    1.0468 C   0  0  0  0  0  0  0  0  0  0  0  0
   -3.0675   -0.3642    1.1002 C   0  0  0  0  0  0  0  0  0  0  0  0
   -1.9334   -1.1195    0.7371 C   0  0  0  0  0  0  0  0  0  0  0  0
   -1.9483   -2.5743    0.8184 C   0  0  0  0  0  0  0  0  0  0  0  0
   -0.8152   -0.4381    0.3129 C   0  0  0  0  0  0  0  0  0  0  0  0
   -0.8325    0.9777    0.2546 C   0  0  0  0  0  0  0  0  0  0  0  0
   -1.9781    1.6624    0.6254 C   0  0  0  0  0  0  0  0  0  0  0  0
    0.2256    1.7068   -0.1492 N   0  0  0  0  0  0  0  0  0  0  0  0
    1.3324    1.0760   -0.5085 C   0  0  0  0  0  0  0  0  0  0  0  0
    2.4782    1.7365   -0.9374 C   0  0  0  0  0  0  0  0  0  0  0  0
    2.4331    2.9873   -0.9779 O   0  0  0  0  0  0  0  0  0  0  0  0
    3.5389    0.9980   -1.2737 N   0  0  0  0  0  0  0  0  0  0  0  0
    4.7414    1.6803   -1.7233 C   0  0  0  0  0  0  0  0  0  0  0  0
    3.5487   -0.3454   -1.2168 C   0  0  0  0  0  0  0  0  0  0  0  0
    4.6159   -0.9497   -1.5614 O   0  0  0  0  0  0  0  0  0  0  0  0
    2.4771   -1.0448   -0.8121 N   0  0  0  0  0  0  0  0  0  0  0  0
    1.3654   -0.3554   -0.4558 C   0  0  0  0  0  0  0  0  0  0  0  0
    0.2893   -1.1070   -0.0450 N   0  0  0  0  0  0  0  0  0  0  0  0
    0.3691   -2.5268   -0.0188 C   0  0  0  0  0  0  0  0  0  0  0  0
   -4.5874    2.5041    0.6654 H   0  0  0  0  0  0  0  0  0  0  0  0
   -5.1757    1.0280    1.4547 H   0  0  0  0  0  0  0  0  0  0  0  0
   -4.1970    2.2114    2.4405 H   0  0  0  0  0  0  0  0  0  0  0  0
   -3.9484   -0.9418    1.4328 H   0  0  0  0  0  0  0  0  0  0  0  0
   -2.2595   -3.1459   -0.0686 H   0  0  0  0  0  0  0  0  0  0  0  0
   -2.9496   -2.7734    1.4035 H   0  0  0  0  0  0  0  0  0  0  0  0
   -1.3244   -3.0606    1.5706 H   0  0  0  0  0  0  0  0  0  0  0  0
   -1.9646    2.7459    0.5714 H   0  0  0  0  0  0  0  0  0  0  0  0
    4.6690    2.7706   -1.5853 H   0  0  0  0  0  0  0  0  0  0  0  0
    5.6519    1.2394   -1.2911 H   0  0  0  0  0  0  0  0  0  0  0  0
    4.8205    1.5180   -2.8380 H   0  0  0  0  0  0  0  0  0  0  0  0
    1.3769   -2.7316   -0.5897 H   0  0  0  0  0  0  0  0  0  0  0  0
    0.6985   -3.0135    0.9084 H   0  0  0  0  0  0  0  0  0  0  0  0
   -0.2332   -3.0909   -0.7347 H   0  0  0  0  0  0  0  0  0  0  0  0
  1  2  1  0
  2  3  2  0
  3  4  1  0
  4  5  1  0
  4  6  2  0
  6  7  1  0
  7  8  2  0
  7  9  1  0
  9 10  2  0
 10 11  1  0
 11 12  2  0
 11 13  1  0
 13 14  1  0
 13 15  1  0
 15 16  2  0
 15 17  1  0
 17 18  2  0
 18 19  1  0
 19 20  1  0
  8  2  1  0
 18 10  1  0
 19  6  1  0
  1 21  1  0
  1 22  1  0
  1 23  1  0
  3 24  1  0
  5 25  1  0
  5 26  1  0
  5 27  1  0
  8 28  1  0
 14 29  1  0
 14 30  1  0
 14 31  1  0
 20 32  1  0
 20 33  1  0
 20 34  1  0
M  END
