
     RDKit          3D

 34 35  0  0  0  0  0  0  0  0999 V2000
   -4.7748   -0.3364   -1.7447 C   0  0  0  0  0  0  0  0  0  0  0  0
   -4.3720   -0.0421   -0.3981 N   0  0  0  0  0  0  0  0  0  0  0  0
   -5.3267    0.1649    0.6696 C   0  0  0  0  0  0  0  0  0  0  0  0
   -2.9792    0.0643   -0.1073 C   0  0  0  0  0  0  0  0  0  0  0  0
   -2.1831   -1.0274    0.0464 C   0  0  0  0  0  0  0  0  0  0  0  0
   -0.8554   -0.8657    0.3480 C   0  0  0  0  0  0  0  0  0  0  0  0
   -0.3088    0.4061    0.5002 C   0  0  0  0  0  0  0  0  0  0  0  0
    1.1320    0.5349    0.8040 C   0  0  0  0  0  0  0  0  0  0  0  0
    1.5506    1.2116    1.7676 O   0  0  0  0  0  0  0  0  0  0  0  0
    2.0267   -0.1490   -0.0530 N   0  0  0  0  0  0  0  0  0  0  0  0
    3.4361   -0.1608    0.0728 C   0  0  0  0  0  0  0  0  0  0  0  0
    4.2073   -0.4274   -1.0788 C   0  0  0  0  0  0  0  0  0  0  0  0
    5.5725   -0.4703   -1.0330 C   0  0  0  0  0  0  0  0  0  0  0  0
    6.2711   -0.2592    0.1356 C   0  0  0  0  0  0  0  0  0  0  0  0
    5.5290    0.0028    1.2798 C   0  0  0  0  0  0  0  0  0  0  0  0
    4.1289    0.0493    1.2366 C   0  0  0  0  0  0  0  0  0  0  0  0
   -1.1488    1.4816    0.3369 C   0  0  0  0  0  0  0  0  0  0  0  0
   -2.4757    1.3335    0.0351 C   0  0  0  0  0  0  0  0  0  0  0  0
   -4.0933    0.1876   -2.4511 H   0  0  0  0  0  0  0  0  0  0  0  0
   -4.6044   -1.4453   -1.8767 H   0  0  0  0  0  0  0  0  0  0  0  0
   -5.8361   -0.1374   -1.9621 H   0  0  0  0  0  0  0  0  0  0  0  0
   -6.3346    0.4813    0.3006 H   0  0  0  0  0  0  0  0  0  0  0  0
   -5.3619   -0.7370    1.3157 H   0  0  0  0  0  0  0  0  0  0  0  0
   -4.9795    0.9985    1.3429 H   0  0  0  0  0  0  0  0  0  0  0  0
   -2.6383   -2.0085   -0.0769 H   0  0  0  0  0  0  0  0  0  0  0  0
   -0.2068   -1.7271    0.4736 H   0  0  0  0  0  0  0  0  0  0  0  0
    1.5703   -0.7000   -0.8541 H   0  0  0  0  0  0  0  0  0  0  0  0
    3.6496   -0.5931   -2.0137 H   0  0  0  0  0  0  0  0  0  0  0  0
    6.1726   -0.6758   -1.9259 H   0  0  0  0  0  0  0  0  0  0  0  0
    7.3496   -0.2950    0.1688 H   0  0  0  0  0  0  0  0  0  0  0  0
    6.0693    0.1689    2.2006 H   0  0  0  0  0  0  0  0  0  0  0  0
    3.5903    0.2514    2.1560 H   0  0  0  0  0  0  0  0  0  0  0  0
   -0.7167    2.4899    0.4584 H   0  0  0  0  0  0  0  0  0  0  0  0
   -3.0598    2.2309   -0.0738 H   0  0  0  0  0  0  0  0  0  0  0  0
  1  2  1  0
  2  3  1  0
  2  4  1  0
  4  5  2  0
  5  6  1  0
  6  7  2  0
  7  8  1  0
  8  9  2  0
  8 10  1  0
 10 11  1  0
 11 12  2  0
 12 13  1  0
 13 14  2  0
 14 15  1  0
 15 16  2  0
  7 17  1  0
 17 18  2  0
 18  4  1  0
 16 11  1  0
  1 19  1  0
  1 20  1  0
  1 21  1  0
  3 22  1  0
  3 23  1  0
  3 24  1  0
  5 25  1  0
  6 26  1  0
 10 27  1  0
 12 28  1  0
 13 29  1  0
 14 30  1  0
 15 31  1  0
 16 32  1  0
 17 33  1  0
 18 34  1  0
M  END
