
     RDKit          3D

 17 18  0  0  0  0  0  0  0  0999 V2000
    0.4482    3.7859   -0.1340 N   0  0  0  0  0  0  0  0  0  0  0  0
    0.1341    2.6659   -0.2778 C   0  0  0  0  0  0  0  0  0  0  0  0
   -0.2508    1.2863   -0.4296 C   0  0  0  0  0  0  0  0  0  0  0  0
   -1.2648    0.9708   -1.3300 C   0  0  0  0  0  0  0  0  0  0  0  0
   -1.6539   -0.3427   -1.4957 C   0  0  0  0  0  0  0  0  0  0  0  0
   -1.0219   -1.3225   -0.7570 C   0  0  0  0  0  0  0  0  0  0  0  0
   -0.0156   -1.0297    0.1396 C   0  0  0  0  0  0  0  0  0  0  0  0
    0.7845   -1.7568    0.9973 C   0  0  0  0  0  0  0  0  0  0  0  0
    1.6464   -0.9142    1.6760 C   0  0  0  0  0  0  0  0  0  0  0  0
    1.3650    0.3200    1.2267 N   0  0  0  0  0  0  0  0  0  0  0  0
    0.3818    0.2972    0.3110 C   0  0  0  0  0  0  0  0  0  0  0  0
   -1.7291    1.7862   -1.8870 H   0  0  0  0  0  0  0  0  0  0  0  0
   -2.4471   -0.5469   -2.2065 H   0  0  0  0  0  0  0  0  0  0  0  0
   -1.3308   -2.3471   -0.8913 H   0  0  0  0  0  0  0  0  0  0  0  0
    0.7270   -2.8357    1.1062 H   0  0  0  0  0  0  0  0  0  0  0  0
    2.3846   -1.2057    2.4101 H   0  0  0  0  0  0  0  0  0  0  0  0
    1.8426    1.1890    1.5422 H   0  0  0  0  0  0  0  0  0  0  0  0
  1  2  3  0
  2  3  1  0
  3  4  2  0
  4  5  1  0
  5  6  2  0
  6  7  1  0
  7  8  1  0
  8  9  2  0
  9 10  1  0
 10 11  1  0
 11  3  1  0
 11  7  2  0
  4 12  1  0
  5 13  1  0
  6 14  1  0
  8 15  1  0
  9 16  1  0
 10 17  1  0
M  END
