
     RDKit          3D

 90 94  0  0  0  0  0  0  0  0999 V2000
  -10.6853   -1.5040    1.1198 C   0  0  0  0  0  0  0  0  0  0  0  0
   -9.3268   -0.8598    1.3754 C   0  0  0  0  0  0  0  0  0  0  0  0
   -8.3907   -1.5922    0.6055 O   0  0  0  0  0  0  0  0  0  0  0  0
   -7.0493   -1.2450    0.6236 C   0  0  0  0  0  0  0  0  0  0  0  0
   -6.7134   -0.2685    1.3418 O   0  0  0  0  0  0  0  0  0  0  0  0
   -6.0220   -1.9783   -0.1644 C   0  0  0  0  0  0  0  0  0  0  0  0
   -5.7137   -1.2657   -1.4370 C   0  0  0  0  0  0  0  0  0  0  0  0
   -5.1872    0.1227   -1.2589 C   0  0  0  0  0  0  0  0  0  0  0  0
   -3.8947    0.0566   -0.4578 C   0  0  0  0  0  0  0  0  0  0  0  0
   -3.3206    1.4438   -0.2573 C   0  0  0  0  0  0  0  0  0  0  0  0
   -2.1013    1.3131    0.5028 N   0  0  0  0  0  0  0  0  0  0  0  0
   -2.1873    1.3745    1.8475 C   0  0  0  0  0  0  0  0  0  0  0  0
   -3.3852    1.5039    2.5150 C   0  0  0  0  0  0  0  0  0  0  0  0
   -3.4417    1.5548    3.8978 C   0  0  0  0  0  0  0  0  0  0  0  0
   -2.2750    1.4737    4.6165 C   0  0  0  0  0  0  0  0  0  0  0  0
   -2.3770    1.5324    6.0978 C   0  0  0  0  0  0  0  0  0  0  0  0
   -1.0802    1.3436    3.9495 C   0  0  0  0  0  0  0  0  0  0  0  0
   -1.0006    1.2904    2.5680 C   0  0  0  0  0  0  0  0  0  0  0  0
    0.2196    1.1489    1.9432 C   0  0  0  0  0  0  0  0  0  0  0  0
    1.2886    1.0748    2.6069 O   0  0  0  0  0  0  0  0  0  0  0  0
    0.2338    1.0910    0.5687 C   0  0  0  0  0  0  0  0  0  0  0  0
    1.4396    0.9353   -0.1283 C   0  0  0  0  0  0  0  0  0  0  0  0
    1.4927    0.8620   -1.4973 C   0  0  0  0  0  0  0  0  0  0  0  0
    0.3159    0.9426   -2.2206 C   0  0  0  0  0  0  0  0  0  0  0  0
   -0.8767    1.0961   -1.5481 C   0  0  0  0  0  0  0  0  0  0  0  0
   -0.9332    1.1721   -0.1775 C   0  0  0  0  0  0  0  0  0  0  0  0
    0.3486    0.8566   -3.6089 C   0  0  0  0  0  0  0  0  0  0  0  0
   -0.7249    0.9317   -4.2408 O   0  0  0  0  0  0  0  0  0  0  0  0
    1.5512    0.6917   -4.2528 C   0  0  0  0  0  0  0  0  0  0  0  0
    1.6311    0.5923   -5.6294 C   0  0  0  0  0  0  0  0  0  0  0  0
    2.8202    0.4188   -6.2911 C   0  0  0  0  0  0  0  0  0  0  0  0
    2.8814    0.3141   -7.7891 C   0  0  0  0  0  0  0  0  0  0  0  0
    3.9852    0.3393   -5.5594 C   0  0  0  0  0  0  0  0  0  0  0  0
    3.9231    0.4377   -4.1707 C   0  0  0  0  0  0  0  0  0  0  0  0
    2.7349    0.6122   -3.5105 C   0  0  0  0  0  0  0  0  0  0  0  0
    2.6582    0.7017   -2.1673 N   0  0  0  0  0  0  0  0  0  0  0  0
    3.8882    0.6554   -1.4214 C   0  0  0  0  0  0  0  0  0  0  0  0
    4.1807   -0.7855   -1.0672 C   0  0  0  0  0  0  0  0  0  0  0  0
    5.4623   -0.9226   -0.2775 C   0  0  0  0  0  0  0  0  0  0  0  0
    5.7365   -2.3698    0.0706 C   0  0  0  0  0  0  0  0  0  0  0  0
    7.0295   -2.4989    0.8643 C   0  0  0  0  0  0  0  0  0  0  0  0
    6.9502   -1.7315    2.1165 C   0  0  0  0  0  0  0  0  0  0  0  0
    6.4285   -2.1605    3.1793 O   0  0  0  0  0  0  0  0  0  0  0  0
    7.4803   -0.4489    2.1440 O   0  0  0  0  0  0  0  0  0  0  0  0
    7.4398    0.3449    3.3099 C   0  0  0  0  0  0  0  0  0  0  0  0
    8.1633   -0.2799    4.4700 C   0  0  0  0  0  0  0  0  0  0  0  0
  -10.7665   -2.4130    1.7507 H   0  0  0  0  0  0  0  0  0  0  0  0
  -10.6995   -1.7640    0.0398 H   0  0  0  0  0  0  0  0  0  0  0  0
  -11.5207   -0.8362    1.4037 H   0  0  0  0  0  0  0  0  0  0  0  0
   -9.4242    0.1901    1.0104 H   0  0  0  0  0  0  0  0  0  0  0  0
   -9.1167   -0.9336    2.4446 H   0  0  0  0  0  0  0  0  0  0  0  0
   -5.1361   -2.1669    0.4430 H   0  0  0  0  0  0  0  0  0  0  0  0
   -6.4862   -2.9854   -0.3634 H   0  0  0  0  0  0  0  0  0  0  0  0
   -5.0302   -1.9138   -2.0330 H   0  0  0  0  0  0  0  0  0  0  0  0
   -6.6432   -1.1867   -2.0395 H   0  0  0  0  0  0  0  0  0  0  0  0
   -5.9666    0.6797   -0.6582 H   0  0  0  0  0  0  0  0  0  0  0  0
   -5.0752    0.6833   -2.1839 H   0  0  0  0  0  0  0  0  0  0  0  0
   -3.2111   -0.5904   -1.0433 H   0  0  0  0  0  0  0  0  0  0  0  0
   -4.0533   -0.4646    0.5092 H   0  0  0  0  0  0  0  0  0  0  0  0
   -4.0740    2.1216    0.2298 H   0  0  0  0  0  0  0  0  0  0  0  0
   -3.1760    1.8768   -1.2812 H   0  0  0  0  0  0  0  0  0  0  0  0
   -4.3190    1.5568    1.9810 H   0  0  0  0  0  0  0  0  0  0  0  0
   -4.4222    1.6589    4.3767 H   0  0  0  0  0  0  0  0  0  0  0  0
   -1.5491    0.9890    6.5992 H   0  0  0  0  0  0  0  0  0  0  0  0
   -3.3408    1.0604    6.4105 H   0  0  0  0  0  0  0  0  0  0  0  0
   -2.4386    2.5940    6.3917 H   0  0  0  0  0  0  0  0  0  0  0  0
   -0.1753    1.2827    4.5669 H   0  0  0  0  0  0  0  0  0  0  0  0
    2.3381    0.8617    0.4626 H   0  0  0  0  0  0  0  0  0  0  0  0
   -1.7696    1.1406   -2.1495 H   0  0  0  0  0  0  0  0  0  0  0  0
    0.7058    0.6556   -6.2037 H   0  0  0  0  0  0  0  0  0  0  0  0
    2.1814   -0.4498   -8.1747 H   0  0  0  0  0  0  0  0  0  0  0  0
    3.8952    0.0495   -8.0932 H   0  0  0  0  0  0  0  0  0  0  0  0
    2.6417    1.3113   -8.1857 H   0  0  0  0  0  0  0  0  0  0  0  0
    4.9405    0.2025   -6.0434 H   0  0  0  0  0  0  0  0  0  0  0  0
    4.8596    0.3565   -3.6578 H   0  0  0  0  0  0  0  0  0  0  0  0
    3.8734    1.2212   -0.4593 H   0  0  0  0  0  0  0  0  0  0  0  0
    4.7569    1.1223   -1.9542 H   0  0  0  0  0  0  0  0  0  0  0  0
    3.3782   -1.2344   -0.4469 H   0  0  0  0  0  0  0  0  0  0  0  0
    4.2549   -1.4303   -1.9720 H   0  0  0  0  0  0  0  0  0  0  0  0
    6.3032   -0.5903   -0.9517 H   0  0  0  0  0  0  0  0  0  0  0  0
    5.4972   -0.2715    0.5992 H   0  0  0  0  0  0  0  0  0  0  0  0
    5.8830   -2.9266   -0.8655 H   0  0  0  0  0  0  0  0  0  0  0  0
    4.9122   -2.7499    0.6993 H   0  0  0  0  0  0  0  0  0  0  0  0
    7.8400   -2.0868    0.2317 H   0  0  0  0  0  0  0  0  0  0  0  0
    7.2765   -3.5624    1.0176 H   0  0  0  0  0  0  0  0  0  0  0  0
    7.8382    1.3521    3.0386 H   0  0  0  0  0  0  0  0  0  0  0  0
    6.3681    0.4589    3.6028 H   0  0  0  0  0  0  0  0  0  0  0  0
    8.9825   -0.9596    4.1412 H   0  0  0  0  0  0  0  0  0  0  0  0
    8.6264    0.5696    5.0467 H   0  0  0  0  0  0  0  0  0  0  0  0
    7.4447   -0.7964    5.1366 H   0  0  0  0  0  0  0  0  0  0  0  0
  1  2  1  0
  2  3  1  0
  3  4  1  0
  4  5  2  0
  4  6  1  0
  6  7  1  0
  7  8  1  0
  8  9  1  0
  9 10  1  0
 10 11  1  0
 11 12  1  0
 12 13  2  0
 13 14  1  0
 14 15  2  0
 15 16  1  0
 15 17  1  0
 17 18  2  0
 18 19  1  0
 19 20  2  0
 19 21  1  0
 21 22  2  0
 22 23  1  0
 23 24  2  0
 24 25  1  0
 25 26  2  0
 24 27  1  0
 27 28  2  0
 27 29  1  0
 29 30  2  0
 30 31  1  0
 31 32  1  0
 31 33  2  0
 33 34  1  0
 34 35  2  0
 35 36  1  0
 36 37  1  0
 37 38  1  0
 38 39  1  0
 39 40  1  0
 40 41  1  0
 41 42  1  0
 42 43  2  0
 42 44  1  0
 44 45  1  0
 45 46  1  0
 26 11  1  0
 35 29  1  0
 18 12  1  0
 26 21  1  0
 36 23  1  0
  1 47  1  0
  1 48  1  0
  1 49  1  0
  2 50  1  0
  2 51  1  0
  6 52  1  0
  6 53  1  0
  7 54  1  0
  7 55  1  0
  8 56  1  0
  8 57  1  0
  9 58  1  0
  9 59  1  0
 10 60  1  0
 10 61  1  0
 13 62  1  0
 14 63  1  0
 16 64  1  0
 16 65  1  0
 16 66  1  0
 17 67  1  0
 22 68  1  0
 25 69  1  0
 30 70  1  0
 32 71  1  0
 32 72  1  0
 32 73  1  0
 33 74  1  0
 34 75  1  0
 37 76  1  0
 37 77  1  0
 38 78  1  0
 38 79  1  0
 39 80  1  0
 39 81  1  0
 40 82  1  0
 40 83  1  0
 41 84  1  0
 41 85  1  0
 45 86  1  0
 45 87  1  0
 46 88  1  0
 46 89  1  0
 46 90  1  0
M  END
