
     RDKit          3D

 36 39  0  0  0  0  0  0  0  0999 V2000
   -0.1488    2.5740    1.6897 O   0  0  0  0  0  0  0  0  0  0  0  0
   -1.0274    1.5850    1.3064 C   0  0  0  0  0  0  0  0  0  0  0  0
   -2.2493    1.5051    1.9318 C   0  0  0  0  0  0  0  0  0  0  0  0
   -3.1561    0.5347    1.5812 C   0  0  0  0  0  0  0  0  0  0  0  0
   -2.8328   -0.3652    0.5921 C   0  0  0  0  0  0  0  0  0  0  0  0
   -3.7542   -1.3454    0.2410 C   0  0  0  0  0  0  0  0  0  0  0  0
   -3.4575   -2.2551   -0.7417 C   0  0  0  0  0  0  0  0  0  0  0  0
   -2.2270   -2.1610   -1.3593 C   0  0  0  0  0  0  0  0  0  0  0  0
   -1.2994   -1.1958   -1.0251 C   0  0  0  0  0  0  0  0  0  0  0  0
   -1.5903   -0.2775   -0.0381 C   0  0  0  0  0  0  0  0  0  0  0  0
   -0.6782    0.7134    0.3278 C   0  0  0  0  0  0  0  0  0  0  0  0
    0.5956    0.7397   -0.3751 C   0  0  0  0  0  0  0  0  0  0  0  0
    0.7035    1.4925   -1.5239 C   0  0  0  0  0  0  0  0  0  0  0  0
   -0.4160    2.1896   -1.9512 O   0  0  0  0  0  0  0  0  0  0  0  0
    1.9062    1.5435   -2.2254 C   0  0  0  0  0  0  0  0  0  0  0  0
    2.9976    0.8344   -1.7660 C   0  0  0  0  0  0  0  0  0  0  0  0
    2.8998    0.0774   -0.6164 C   0  0  0  0  0  0  0  0  0  0  0  0
    3.9695   -0.6282   -0.1508 C   0  0  0  0  0  0  0  0  0  0  0  0
    3.8229   -1.3741    1.0082 C   0  0  0  0  0  0  0  0  0  0  0  0
    2.6384   -1.4330    1.7117 C   0  0  0  0  0  0  0  0  0  0  0  0
    1.5622   -0.7158    1.2326 C   0  0  0  0  0  0  0  0  0  0  0  0
    1.7065    0.0295    0.0757 C   0  0  0  0  0  0  0  0  0  0  0  0
   -0.3788    3.2387    2.4152 H   0  0  0  0  0  0  0  0  0  0  0  0
   -2.5245    2.2112    2.7202 H   0  0  0  0  0  0  0  0  0  0  0  0
   -4.1106    0.4780    2.0749 H   0  0  0  0  0  0  0  0  0  0  0  0
   -4.7198   -1.4203    0.7248 H   0  0  0  0  0  0  0  0  0  0  0  0
   -4.1840   -3.0150   -1.0068 H   0  0  0  0  0  0  0  0  0  0  0  0
   -1.9990   -2.8837   -2.1356 H   0  0  0  0  0  0  0  0  0  0  0  0
   -0.3435   -1.1579   -1.5364 H   0  0  0  0  0  0  0  0  0  0  0  0
   -0.3225    2.7381   -2.7958 H   0  0  0  0  0  0  0  0  0  0  0  0
    1.9452    2.1520   -3.1288 H   0  0  0  0  0  0  0  0  0  0  0  0
    3.9474    0.8703   -2.3138 H   0  0  0  0  0  0  0  0  0  0  0  0
    4.9063   -0.5947   -0.6883 H   0  0  0  0  0  0  0  0  0  0  0  0
    4.6782   -1.9341    1.3744 H   0  0  0  0  0  0  0  0  0  0  0  0
    2.5439   -2.0296    2.6268 H   0  0  0  0  0  0  0  0  0  0  0  0
    0.5960   -0.7207    1.7439 H   0  0  0  0  0  0  0  0  0  0  0  0
  1  2  1  0
  2  3  2  0
  3  4  1  0
  4  5  2  0
  5  6  1  0
  6  7  2  0
  7  8  1  0
  8  9  2  0
  9 10  1  0
 10 11  2  0
 11 12  1  0
 12 13  2  0
 13 14  1  0
 13 15  1  0
 15 16  2  0
 16 17  1  0
 17 18  2  0
 18 19  1  0
 19 20  2  0
 20 21  1  0
 21 22  2  0
 11  2  1  0
 22 12  1  0
 10  5  1  0
 22 17  1  0
  1 23  1  0
  3 24  1  0
  4 25  1  0
  6 26  1  0
  7 27  1  0
  8 28  1  0
  9 29  1  0
 14 30  1  0
 15 31  1  0
 16 32  1  0
 18 33  1  0
 19 34  1  0
 20 35  1  0
 21 36  1  0
M  END
