
     RDKit          3D

 14 15  0  0  0  0  0  0  0  0999 V2000
   -1.6807    0.8547    0.1724 C   0  0  0  0  0  0  0  0  0  0  0  0
   -1.9863   -0.3985   -0.2872 C   0  0  0  0  0  0  0  0  0  0  0  0
   -0.9329   -1.2533   -0.5065 C   0  0  0  0  0  0  0  0  0  0  0  0
    0.3859   -0.8288   -0.2601 C   0  0  0  0  0  0  0  0  0  0  0  0
    1.9614   -1.5018   -0.3770 S   0  0  0  0  0  0  0  0  0  0  0  0
    2.8725   -0.1531    0.1611 C   0  0  0  0  0  0  0  0  0  0  0  0
    1.9283    0.7190    0.3946 N   0  0  0  0  0  0  0  0  0  0  0  0
    0.6769    0.4267    0.1993 C   0  0  0  0  0  0  0  0  0  0  0  0
   -0.4080    1.2873    0.4183 C   0  0  0  0  0  0  0  0  0  0  0  0
   -2.5147    1.5583    0.3554 H   0  0  0  0  0  0  0  0  0  0  0  0
   -2.9770   -0.7281   -0.4761 H   0  0  0  0  0  0  0  0  0  0  0  0
   -1.0228   -2.2624   -0.8650 H   0  0  0  0  0  0  0  0  0  0  0  0
    3.9654   -0.0332    0.2845 H   0  0  0  0  0  0  0  0  0  0  0  0
   -0.2678    2.3132    0.7863 H   0  0  0  0  0  0  0  0  0  0  0  0
  1  2  2  0
  2  3  1  0
  3  4  2  0
  4  5  1  0
  5  6  1  0
  6  7  2  0
  7  8  1  0
  8  9  2  0
  9  1  1  0
  8  4  1  0
  1 10  1  0
  2 11  1  0
  3 12  1  0
  6 13  1  0
  9 14  1  0
M  END
