
     RDKit          3D

 28 29  0  0  0  0  0  0  0  0999 V2000
   -5.8769   -0.3036    0.4669 C   0  0  0  0  0  0  0  0  0  0  0  0
   -4.9944    1.1509   -0.1806 S   0  0  0  0  0  0  0  0  0  0  0  0
   -3.2438    0.8020   -0.2149 C   0  0  0  0  0  0  0  0  0  0  0  0
   -2.6801    0.2426   -1.3298 C   0  0  0  0  0  0  0  0  0  0  0  0
   -1.3051   -0.0215   -1.3322 C   0  0  0  0  0  0  0  0  0  0  0  0
   -0.5067    0.2625   -0.2536 C   0  0  0  0  0  0  0  0  0  0  0  0
    0.9162   -0.0381   -0.3235 C   0  0  0  0  0  0  0  0  0  0  0  0
    1.7929    0.1798    0.6286 C   0  0  0  0  0  0  0  0  0  0  0  0
    3.2136   -0.1318    0.5305 C   0  0  0  0  0  0  0  0  0  0  0  0
    3.8335   -0.6895   -0.5535 C   0  0  0  0  0  0  0  0  0  0  0  0
    5.1858   -0.9632   -0.5904 C   0  0  0  0  0  0  0  0  0  0  0  0
    5.9469   -0.6666    0.5014 N   0  0  0  0  0  0  0  0  0  0  0  0
    5.3314   -0.1182    1.5645 C   0  0  0  0  0  0  0  0  0  0  0  0
    4.0119    0.1450    1.5910 N   0  0  0  0  0  0  0  0  0  0  0  0
   -1.0942    0.8209    0.8473 C   0  0  0  0  0  0  0  0  0  0  0  0
   -2.4633    1.0911    0.8676 C   0  0  0  0  0  0  0  0  0  0  0  0
   -6.7468   -0.5003   -0.1621 H   0  0  0  0  0  0  0  0  0  0  0  0
   -5.2007   -1.1805    0.4106 H   0  0  0  0  0  0  0  0  0  0  0  0
   -6.1034   -0.1539    1.5393 H   0  0  0  0  0  0  0  0  0  0  0  0
   -3.2948    0.0131   -2.1868 H   0  0  0  0  0  0  0  0  0  0  0  0
   -0.9032   -0.4615   -2.2285 H   0  0  0  0  0  0  0  0  0  0  0  0
    1.3318   -0.4896   -1.2419 H   0  0  0  0  0  0  0  0  0  0  0  0
    1.3923    0.6312    1.5540 H   0  0  0  0  0  0  0  0  0  0  0  0
    3.2537   -0.9318   -1.4258 H   0  0  0  0  0  0  0  0  0  0  0  0
    5.6723   -1.4032   -1.4470 H   0  0  0  0  0  0  0  0  0  0  0  0
    5.9432    0.1171    2.4347 H   0  0  0  0  0  0  0  0  0  0  0  0
   -0.5347    1.0720    1.7317 H   0  0  0  0  0  0  0  0  0  0  0  0
   -2.8773    1.5250    1.7433 H   0  0  0  0  0  0  0  0  0  0  0  0
  1  2  1  0
  2  3  1  0
  3  4  2  0
  4  5  1  0
  5  6  2  0
  6  7  1  0
  7  8  2  0
  8  9  1  0
  9 10  2  0
 10 11  1  0
 11 12  2  0
 12 13  1  0
 13 14  2  0
  6 15  1  0
 15 16  2  0
 16  3  1  0
 14  9  1  0
  1 17  1  0
  1 18  1  0
  1 19  1  0
  4 20  1  0
  5 21  1  0
  7 22  1  0
  8 23  1  0
 10 24  1  0
 11 25  1  0
 13 26  1  0
 15 27  1  0
 16 28  1  0
M  END
