
     RDKit          3D

 50 53  0  0  0  0  0  0  0  0999 V2000
    7.3357    2.7500   -0.7140 C   0  0  0  0  0  0  0  0  0  0  0  0
    6.0683    2.0853   -0.5944 O   0  0  0  0  0  0  0  0  0  0  0  0
    5.9864    0.7108   -0.5630 C   0  0  0  0  0  0  0  0  0  0  0  0
    7.0651    0.0706   -0.6433 O   0  0  0  0  0  0  0  0  0  0  0  0
    4.7484   -0.0255   -0.4445 C   0  0  0  0  0  0  0  0  0  0  0  0
    3.5719    0.5724   -0.3551 C   0  0  0  0  0  0  0  0  0  0  0  0
    2.3268   -0.2211   -0.2351 C   0  0  0  0  0  0  0  0  0  0  0  0
    1.1018    0.2559   -0.1394 C   0  0  0  0  0  0  0  0  0  0  0  0
    0.1849   -0.8781   -0.0412 C   0  0  0  0  0  0  0  0  0  0  0  0
   -1.1475   -0.9471    0.0778 C   0  0  0  0  0  0  0  0  0  0  0  0
   -1.9442    0.2861    0.1331 C   0  0  0  0  0  0  0  0  0  0  0  0
   -2.9362    0.5270   -0.8278 C   0  0  0  0  0  0  0  0  0  0  0  0
   -3.1555   -0.4202   -1.9387 C   0  0  0  0  0  0  0  0  0  0  0  0
   -3.7257    1.6584   -0.7760 C   0  0  0  0  0  0  0  0  0  0  0  0
   -3.5163    2.5556    0.2494 C   0  0  0  0  0  0  0  0  0  0  0  0
   -4.3693    3.7891    0.3137 C   0  0  0  0  0  0  0  0  0  0  0  0
   -2.5497    2.3387    1.2012 C   0  0  0  0  0  0  0  0  0  0  0  0
   -1.7685    1.1973    1.1327 C   0  0  0  0  0  0  0  0  0  0  0  0
   -0.7716    0.9833    2.1852 C   0  0  0  0  0  0  0  0  0  0  0  0
   -1.8185   -2.2444    0.1666 C   0  0  0  0  0  0  0  0  0  0  0  0
   -3.1747   -2.5581    0.3077 C   0  0  0  0  0  0  0  0  0  0  0  0
   -3.2643   -3.9255    0.3533 C   0  0  0  0  0  0  0  0  0  0  0  0
   -1.9790   -4.4057    0.2409 C   0  0  0  0  0  0  0  0  0  0  0  0
   -1.1086   -3.3698    0.1280 N   0  0  0  0  0  0  0  0  0  0  0  0
    0.3908   -3.4247   -0.0147 B   0  0  0  0  0  4  0  0  0  0  0  0
    0.9937   -4.2093    1.0715 F   0  0  0  0  0  0  0  0  0  0  0  0
    0.7237   -4.1398   -1.2491 F   0  0  0  0  0  0  0  0  0  0  0  0
    1.0006   -2.0389   -0.0905 N   0  0  0  0  0  4  0  0  0  0  0  0
    2.2166   -1.6685   -0.2005 C   0  0  0  0  0  0  0  0  0  0  0  0
    7.9362    2.6482    0.2005 H   0  0  0  0  0  0  0  0  0  0  0  0
    7.1576    3.8213   -0.9135 H   0  0  0  0  0  0  0  0  0  0  0  0
    7.9003    2.3521   -1.5989 H   0  0  0  0  0  0  0  0  0  0  0  0
    4.7399   -1.1054   -0.4246 H   0  0  0  0  0  0  0  0  0  0  0  0
    3.5528    1.6452   -0.3726 H   0  0  0  0  0  0  0  0  0  0  0  0
    0.8482    1.3113   -0.1421 H   0  0  0  0  0  0  0  0  0  0  0  0
   -3.1763    0.1827   -2.8935 H   0  0  0  0  0  0  0  0  0  0  0  0
   -4.1301   -0.9295   -1.8940 H   0  0  0  0  0  0  0  0  0  0  0  0
   -2.2918   -1.0885   -2.0313 H   0  0  0  0  0  0  0  0  0  0  0  0
   -4.5011    1.8548   -1.5193 H   0  0  0  0  0  0  0  0  0  0  0  0
   -5.4106    3.5483    0.0550 H   0  0  0  0  0  0  0  0  0  0  0  0
   -4.2980    4.2237    1.3206 H   0  0  0  0  0  0  0  0  0  0  0  0
   -3.9223    4.5084   -0.4075 H   0  0  0  0  0  0  0  0  0  0  0  0
   -2.3843    3.0392    2.0037 H   0  0  0  0  0  0  0  0  0  0  0  0
   -1.2999    1.2252    3.1596 H   0  0  0  0  0  0  0  0  0  0  0  0
    0.0368    1.7124    2.0937 H   0  0  0  0  0  0  0  0  0  0  0  0
   -0.4355   -0.0764    2.2622 H   0  0  0  0  0  0  0  0  0  0  0  0
   -3.9884   -1.8634    0.3743 H   0  0  0  0  0  0  0  0  0  0  0  0
   -4.1736   -4.5352    0.4584 H   0  0  0  0  0  0  0  0  0  0  0  0
   -1.7186   -5.4516    0.2438 H   0  0  0  0  0  0  0  0  0  0  0  0
    3.0738   -2.3265   -0.2620 H   0  0  0  0  0  0  0  0  0  0  0  0
  1  2  1  0
  2  3  1  0
  3  4  2  0
  3  5  1  0
  5  6  2  0
  6  7  1  0
  7  8  2  0
  8  9  1  0
  9 10  2  0
 10 11  1  0
 11 12  2  0
 12 13  1  0
 12 14  1  0
 14 15  2  0
 15 16  1  0
 15 17  1  0
 17 18  2  0
 18 19  1  0
 10 20  1  0
 20 21  2  0
 21 22  1  0
 22 23  2  0
 23 24  1  0
 24 25  1  0
 25 26  1  0
 25 27  1  0
 25 28  1  0
 28 29  2  0
 29  7  1  0
 28  9  1  0
 18 11  1  0
 24 20  1  0
  1 30  1  0
  1 31  1  0
  1 32  1  0
  5 33  1  0
  6 34  1  0
  8 35  1  0
 13 36  1  0
 13 37  1  0
 13 38  1  0
 14 39  1  0
 16 40  1  0
 16 41  1  0
 16 42  1  0
 17 43  1  0
 19 44  1  0
 19 45  1  0
 19 46  1  0
 21 47  1  0
 22 48  1  0
 23 49  1  0
 29 50  1  0
M  CHG  2  25  -1  28   1
M  END
