
     RDKit          3D

 40 42  0  0  0  0  0  0  0  0999 V2000
   -7.9268    1.8355    1.3249 C   0  0  0  0  0  0  0  0  0  0  0  0
   -6.7191    1.4889    2.0122 O   0  0  0  0  0  0  0  0  0  0  0  0
   -5.5352    1.1487    1.3470 C   0  0  0  0  0  0  0  0  0  0  0  0
   -5.5524    1.1751   -0.0317 C   0  0  0  0  0  0  0  0  0  0  0  0
   -4.4082    0.8446   -0.7544 C   0  0  0  0  0  0  0  0  0  0  0  0
   -3.2598    0.4984   -0.1439 C   0  0  0  0  0  0  0  0  0  0  0  0
   -2.0518   -0.0640   -0.9285 C   0  0  0  0  0  0  0  0  0  0  0  0
   -2.5398   -0.5466   -2.2029 C   0  0  0  0  0  0  0  0  0  0  0  0
   -0.8414   -1.3497   -2.5151 S   0  0  0  0  0  0  0  0  0  0  0  0
   -0.0715   -0.9345   -1.1512 C   0  0  0  0  0  0  0  0  0  0  0  0
    1.3431   -0.9875   -0.5816 C   0  0  0  0  0  0  0  0  0  0  0  0
    1.4539   -1.6487    0.5821 C   0  0  0  0  0  0  0  0  0  0  0  0
    1.5419   -2.2957    1.7282 N   0  0  0  0  0  0  0  0  0  0  0  0
    2.3862   -0.5863   -1.2548 C   0  0  0  0  0  0  0  0  0  0  0  0
    3.7380   -0.5940   -0.7563 C   0  0  0  0  0  0  0  0  0  0  0  0
    4.1376   -0.0057    0.4470 C   0  0  0  0  0  0  0  0  0  0  0  0
    5.4625    0.0113    0.8837 C   0  0  0  0  0  0  0  0  0  0  0  0
    6.4726   -0.5835    0.0942 C   0  0  0  0  0  0  0  0  0  0  0  0
    7.8684   -0.5140    0.5371 C   0  0  0  0  0  0  0  0  0  0  0  0
    8.2145   -1.5348    1.4159 F   0  0  0  0  0  0  0  0  0  0  0  0
    8.1399    0.6978    1.1875 F   0  0  0  0  0  0  0  0  0  0  0  0
    8.7558   -0.5800   -0.5482 F   0  0  0  0  0  0  0  0  0  0  0  0
    6.0353   -1.1593   -1.0855 C   0  0  0  0  0  0  0  0  0  0  0  0
    4.7268   -1.1621   -1.4914 C   0  0  0  0  0  0  0  0  0  0  0  0
   -1.0165   -0.2416   -0.5064 N   0  0  0  0  0  0  0  0  0  0  0  0
   -3.2221    0.4740    1.2510 C   0  0  0  0  0  0  0  0  0  0  0  0
   -4.3670    0.7999    1.9488 C   0  0  0  0  0  0  0  0  0  0  0  0
   -7.6696    2.6370    0.5744 H   0  0  0  0  0  0  0  0  0  0  0  0
   -8.6362    2.1886    2.0585 H   0  0  0  0  0  0  0  0  0  0  0  0
   -8.2959    0.9561    0.7431 H   0  0  0  0  0  0  0  0  0  0  0  0
   -6.4256    1.4598   -0.5615 H   0  0  0  0  0  0  0  0  0  0  0  0
   -4.4525    0.8570   -1.8308 H   0  0  0  0  0  0  0  0  0  0  0  0
   -3.1118   -0.6741   -2.9430 H   0  0  0  0  0  0  0  0  0  0  0  0
    2.1764   -0.2333   -2.2937 H   0  0  0  0  0  0  0  0  0  0  0  0
    3.3223    0.4448    1.0322 H   0  0  0  0  0  0  0  0  0  0  0  0
    5.7064    0.4906    1.8138 H   0  0  0  0  0  0  0  0  0  0  0  0
    6.8106   -1.6203   -1.7255 H   0  0  0  0  0  0  0  0  0  0  0  0
    4.4457   -1.6440   -2.4425 H   0  0  0  0  0  0  0  0  0  0  0  0
   -2.2798    0.1905    1.7232 H   0  0  0  0  0  0  0  0  0  0  0  0
   -4.3548    0.7612    3.0444 H   0  0  0  0  0  0  0  0  0  0  0  0
  1  2  1  0
  2  3  1  0
  3  4  2  0
  4  5  1  0
  5  6  2  0
  6  7  1  0
  7  8  2  0
  8  9  1  0
  9 10  1  0
 10 11  1  0
 11 12  1  0
 12 13  3  0
 11 14  2  0
 14 15  1  0
 15 16  2  0
 16 17  1  0
 17 18  2  0
 18 19  1  0
 19 20  1  0
 19 21  1  0
 19 22  1  0
 18 23  1  0
 23 24  2  0
 10 25  2  0
  6 26  1  0
 26 27  2  0
 27  3  1  0
 25  7  1  0
 24 15  1  0
  1 28  1  0
  1 29  1  0
  1 30  1  0
  4 31  1  0
  5 32  1  0
  8 33  1  0
 14 34  1  0
 16 35  1  0
 17 36  1  0
 23 37  1  0
 24 38  1  0
 26 39  1  0
 27 40  1  0
M  END
