
     RDKit          3D

 25 26  0  0  0  0  0  0  0  0999 V2000
    1.4238    2.6171    0.5311 O   0  0  0  0  0  0  0  0  0  0  0  0
    1.3666    1.3865    0.2501 C   0  0  0  0  0  0  0  0  0  0  0  0
    2.6168    0.6118    0.0368 C   0  0  0  0  0  0  0  0  0  0  0  0
    2.3300   -0.8292    0.4031 C   0  0  0  0  0  0  0  0  0  0  0  0
    1.1485   -1.2618   -0.4748 C   0  0  0  0  0  0  0  0  0  0  0  0
   -0.0867   -0.6811    0.1675 C   0  0  0  0  0  0  0  0  0  0  0  0
   -1.3569   -1.0879   -0.5251 C   0  0  0  0  0  0  0  0  0  0  0  0
   -2.4981   -0.3884    0.1977 C   0  0  0  0  0  0  0  0  0  0  0  0
   -2.4150    1.0937   -0.0630 C   0  0  0  0  0  0  0  0  0  0  0  0
   -1.0148    1.5808    0.0456 C   0  0  0  0  0  0  0  0  0  0  0  0
    0.0375    0.7850    0.1497 C   0  0  0  0  0  0  0  0  0  0  0  0
    3.4220    1.0316    0.6820 H   0  0  0  0  0  0  0  0  0  0  0  0
    2.9181    0.6075   -1.0401 H   0  0  0  0  0  0  0  0  0  0  0  0
    3.1889   -1.4936    0.2315 H   0  0  0  0  0  0  0  0  0  0  0  0
    2.0262   -0.8360    1.4784 H   0  0  0  0  0  0  0  0  0  0  0  0
    1.1303   -2.3573   -0.4805 H   0  0  0  0  0  0  0  0  0  0  0  0
    1.3027   -0.8684   -1.4878 H   0  0  0  0  0  0  0  0  0  0  0  0
   -0.1410   -1.0988    1.2068 H   0  0  0  0  0  0  0  0  0  0  0  0
   -1.5061   -2.1942   -0.4623 H   0  0  0  0  0  0  0  0  0  0  0  0
   -1.3588   -0.8396   -1.6049 H   0  0  0  0  0  0  0  0  0  0  0  0
   -3.4222   -0.8429   -0.1508 H   0  0  0  0  0  0  0  0  0  0  0  0
   -2.3098   -0.5641    1.2953 H   0  0  0  0  0  0  0  0  0  0  0  0
   -2.8348    1.2962   -1.0798 H   0  0  0  0  0  0  0  0  0  0  0  0
   -3.0625    1.6558    0.6598 H   0  0  0  0  0  0  0  0  0  0  0  0
   -0.9048    2.6771    0.0336 H   0  0  0  0  0  0  0  0  0  0  0  0
  1  2  2  0
  2  3  1  0
  3  4  1  0
  4  5  1  0
  5  6  1  0
  6  7  1  0
  7  8  1  0
  8  9  1  0
  9 10  1  0
 10 11  2  0
 11  2  1  0
 11  6  1  0
  3 12  1  0
  3 13  1  0
  4 14  1  0
  4 15  1  0
  5 16  1  0
  5 17  1  0
  6 18  1  0
  7 19  1  0
  7 20  1  0
  8 21  1  0
  8 22  1  0
  9 23  1  0
  9 24  1  0
 10 25  1  0
M  END
