
     RDKit          3D

 78 84  0  0  0  0  0  0  0  0999 V2000
   11.2641    2.5401   -1.4050 N   0  0  0  0  0  0  0  0  0  0  0  0
   11.8424    1.9883   -0.2003 C   0  0  0  0  0  0  0  0  0  0  0  0
   11.2549    0.6359    0.0722 C   0  0  0  0  0  0  0  0  0  0  0  0
    9.7566    0.7627    0.2489 C   0  0  0  0  0  0  0  0  0  0  0  0
    9.1230   -0.5838    0.5268 C   0  0  0  0  0  0  0  0  0  0  0  0
    7.6285   -0.4715    0.7079 C   0  0  0  0  0  0  0  0  0  0  0  0
    6.9668    0.0844   -0.5140 C   0  0  0  0  0  0  0  0  0  0  0  0
    5.4673    0.2040   -0.3562 C   0  0  0  0  0  0  0  0  0  0  0  0
    4.8090   -1.1309   -0.0849 C   0  0  0  0  0  0  0  0  0  0  0  0
    3.3225   -0.8747    0.0524 C   0  0  0  0  0  0  0  0  0  0  0  0
    2.5487   -2.1265    0.3255 C   0  0  0  0  0  0  0  0  0  0  0  0
    1.0821   -1.8005    0.4535 C   0  0  0  0  0  0  0  0  0  0  0  0
    0.5070   -1.1736   -0.7947 C   0  0  0  0  0  0  0  0  0  0  0  0
   -0.8913   -0.8889   -0.6096 N   0  0  0  0  0  0  0  0  0  0  0  0
   -1.8641   -1.8583   -0.9449 C   0  0  0  0  0  0  0  0  0  0  0  0
   -1.5724   -2.9875   -1.4095 O   0  0  0  0  0  0  0  0  0  0  0  0
   -3.3014   -1.5697   -0.7553 C   0  0  0  0  0  0  0  0  0  0  0  0
   -4.2156   -2.5286   -1.0893 C   0  0  0  0  0  0  0  0  0  0  0  0
   -5.5845   -2.3402   -0.9429 C   0  0  0  0  0  0  0  0  0  0  0  0
   -6.0250   -1.1439   -0.4437 C   0  0  0  0  0  0  0  0  0  0  0  0
   -7.3918   -0.9312   -0.2875 C   0  0  0  0  0  0  0  0  0  0  0  0
   -8.3079   -1.9022   -0.6260 C   0  0  0  0  0  0  0  0  0  0  0  0
   -9.6593   -1.6898   -0.4705 C   0  0  0  0  0  0  0  0  0  0  0  0
  -10.0940   -0.4976    0.0270 C   0  0  0  0  0  0  0  0  0  0  0  0
   -9.1729    0.4981    0.3750 C   0  0  0  0  0  0  0  0  0  0  0  0
   -9.6244    1.6858    0.8716 C   0  0  0  0  0  0  0  0  0  0  0  0
   -8.7236    2.6661    1.2146 C   0  0  0  0  0  0  0  0  0  0  0  0
   -7.3436    2.4868    1.0708 C   0  0  0  0  0  0  0  0  0  0  0  0
   -6.9094    1.2953    0.5736 C   0  0  0  0  0  0  0  0  0  0  0  0
   -5.5571    1.0442    0.4028 C   0  0  0  0  0  0  0  0  0  0  0  0
   -4.6488    2.0145    0.7418 C   0  0  0  0  0  0  0  0  0  0  0  0
   -3.2749    1.7754    0.5750 C   0  0  0  0  0  0  0  0  0  0  0  0
   -2.8057    0.5986    0.0820 C   0  0  0  0  0  0  0  0  0  0  0  0
   -3.7344   -0.3640   -0.2528 C   0  0  0  0  0  0  0  0  0  0  0  0
   -5.0905   -0.1645   -0.1026 C   0  0  0  0  0  0  0  0  0  0  0  0
   -1.3582    0.3454   -0.0940 C   0  0  0  0  0  0  0  0  0  0  0  0
   -0.5731    1.2694    0.2330 O   0  0  0  0  0  0  0  0  0  0  0  0
   -7.8013    0.2979    0.2234 C   0  0  0  0  0  0  0  0  0  0  0  0
  -11.0693    1.9239    1.0423 C   0  0  0  0  0  0  0  0  0  0  0  0
  -11.4776    3.0209    1.5006 O   0  0  0  0  0  0  0  0  0  0  0  0
  -11.9937    0.9106    0.6874 N   0  0  0  0  0  0  0  0  0  0  0  0
  -11.5402   -0.3156    0.1754 C   0  0  0  0  0  0  0  0  0  0  0  0
  -12.3451   -1.2298   -0.1464 O   0  0  0  0  0  0  0  0  0  0  0  0
   11.8650    3.2262   -1.8795 H   0  0  0  0  0  0  0  0  0  0  0  0
   10.9442    1.7543   -2.0382 H   0  0  0  0  0  0  0  0  0  0  0  0
   12.9512    1.9056   -0.2567 H   0  0  0  0  0  0  0  0  0  0  0  0
   11.6347    2.6603    0.6823 H   0  0  0  0  0  0  0  0  0  0  0  0
   11.6611    0.2736    1.0391 H   0  0  0  0  0  0  0  0  0  0  0  0
   11.5205   -0.0565   -0.7481 H   0  0  0  0  0  0  0  0  0  0  0  0
    9.3550    1.2476   -0.6669 H   0  0  0  0  0  0  0  0  0  0  0  0
    9.5802    1.4690    1.0854 H   0  0  0  0  0  0  0  0  0  0  0  0
    9.4000   -1.2886   -0.2714 H   0  0  0  0  0  0  0  0  0  0  0  0
    9.5866   -0.9645    1.4597 H   0  0  0  0  0  0  0  0  0  0  0  0
    7.2517   -1.4651    1.0008 H   0  0  0  0  0  0  0  0  0  0  0  0
    7.4550    0.1938    1.5880 H   0  0  0  0  0  0  0  0  0  0  0  0
    7.3273    1.1498   -0.6221 H   0  0  0  0  0  0  0  0  0  0  0  0
    7.2729   -0.4462   -1.4147 H   0  0  0  0  0  0  0  0  0  0  0  0
    5.0893    0.6589   -1.2940 H   0  0  0  0  0  0  0  0  0  0  0  0
    5.2843    0.9445    0.4519 H   0  0  0  0  0  0  0  0  0  0  0  0
    4.9656   -1.7510   -0.9942 H   0  0  0  0  0  0  0  0  0  0  0  0
    5.2375   -1.6613    0.7608 H   0  0  0  0  0  0  0  0  0  0  0  0
    3.0018   -0.4233   -0.9054 H   0  0  0  0  0  0  0  0  0  0  0  0
    3.1322   -0.1485    0.8672 H   0  0  0  0  0  0  0  0  0  0  0  0
    2.7384   -2.9311   -0.3984 H   0  0  0  0  0  0  0  0  0  0  0  0
    2.8678   -2.4838    1.3449 H   0  0  0  0  0  0  0  0  0  0  0  0
    0.9460   -1.0895    1.2939 H   0  0  0  0  0  0  0  0  0  0  0  0
    0.4957   -2.7219    0.6427 H   0  0  0  0  0  0  0  0  0  0  0  0
    0.6324   -1.8846   -1.6317 H   0  0  0  0  0  0  0  0  0  0  0  0
    0.9874   -0.1758   -1.0164 H   0  0  0  0  0  0  0  0  0  0  0  0
   -3.8882   -3.4826   -1.4861 H   0  0  0  0  0  0  0  0  0  0  0  0
   -6.2511   -3.1310   -1.2229 H   0  0  0  0  0  0  0  0  0  0  0  0
   -8.0369   -2.8598   -1.0215 H   0  0  0  0  0  0  0  0  0  0  0  0
  -10.3875   -2.4605   -0.7393 H   0  0  0  0  0  0  0  0  0  0  0  0
   -9.0678    3.6142    1.6099 H   0  0  0  0  0  0  0  0  0  0  0  0
   -6.6705    3.2644    1.3450 H   0  0  0  0  0  0  0  0  0  0  0  0
   -4.8878    2.9744    1.1364 H   0  0  0  0  0  0  0  0  0  0  0  0
   -2.5821    2.5606    0.8514 H   0  0  0  0  0  0  0  0  0  0  0  0
  -13.0336    1.0424    0.7946 H   0  0  0  0  0  0  0  0  0  0  0  0
  1  2  1  0
  2  3  1  0
  3  4  1  0
  4  5  1  0
  5  6  1  0
  6  7  1  0
  7  8  1  0
  8  9  1  0
  9 10  1  0
 10 11  1  0
 11 12  1  0
 12 13  1  0
 13 14  1  0
 14 15  1  0
 15 16  2  0
 15 17  1  0
 17 18  2  0
 18 19  1  0
 19 20  2  0
 20 21  1  0
 21 22  2  0
 22 23  1  0
 23 24  2  0
 24 25  1  0
 25 26  1  0
 26 27  2  0
 27 28  1  0
 28 29  2  0
 29 30  1  0
 30 31  2  0
 31 32  1  0
 32 33  2  0
 33 34  1  0
 34 35  2  0
 33 36  1  0
 36 37  2  0
 29 38  1  0
 26 39  1  0
 39 40  2  0
 39 41  1  0
 41 42  1  0
 42 43  2  0
 36 14  1  0
 34 17  1  0
 35 20  1  0
 38 21  1  0
 42 24  1  0
 38 25  2  0
 35 30  1  0
  1 44  1  0
  1 45  1  0
  2 46  1  0
  2 47  1  0
  3 48  1  0
  3 49  1  0
  4 50  1  0
  4 51  1  0
  5 52  1  0
  5 53  1  0
  6 54  1  0
  6 55  1  0
  7 56  1  0
  7 57  1  0
  8 58  1  0
  8 59  1  0
  9 60  1  0
  9 61  1  0
 10 62  1  0
 10 63  1  0
 11 64  1  0
 11 65  1  0
 12 66  1  0
 12 67  1  0
 13 68  1  0
 13 69  1  0
 18 70  1  0
 19 71  1  0
 22 72  1  0
 23 73  1  0
 27 74  1  0
 28 75  1  0
 31 76  1  0
 32 77  1  0
 41 78  1  0
M  END
