
     RDKit          3D

 81 86  0  0  0  0  0  0  0  0999 V2000
   -6.7890    5.2722   -1.7245 C   0  0  0  0  0  0  0  0  0  0  0  0
   -8.2033    4.9271   -1.3807 C   0  0  0  0  0  0  0  0  0  0  0  0
   -8.4626    3.5376   -1.1812 N   0  0  0  0  0  0  0  0  0  0  0  0
   -9.8670    3.1515   -0.9918 C   0  0  0  0  0  0  0  0  0  0  0  0
  -10.3817    3.6659    0.3251 C   0  0  0  0  0  0  0  0  0  0  0  0
   -7.5265    2.4838   -1.0917 C   0  0  0  0  0  0  0  0  0  0  0  0
   -6.3167    2.6888   -0.4502 C   0  0  0  0  0  0  0  0  0  0  0  0
   -5.3899    1.6500   -0.4141 C   0  0  0  0  0  0  0  0  0  0  0  0
   -5.6424    0.4217   -0.9985 C   0  0  0  0  0  0  0  0  0  0  0  0
   -4.6883   -0.5992   -0.9501 C   0  0  0  0  0  0  0  0  0  0  0  0
   -4.9508   -1.7998   -1.5336 C   0  0  0  0  0  0  0  0  0  0  0  0
   -3.9446   -2.8759   -1.5479 C   0  0  0  0  0  0  0  0  0  0  0  0
   -2.7403   -2.6704   -1.0883 C   0  0  0  0  0  0  0  0  0  0  0  0
   -1.6855   -3.6637   -1.0586 C   0  0  0  0  0  0  0  0  0  0  0  0
   -0.4879   -3.3289   -0.5647 C   0  0  0  0  0  0  0  0  0  0  0  0
   -0.0590   -2.0178   -0.0099 C   0  0  0  0  0  0  0  0  0  0  0  0
    1.1487   -2.4396    0.8539 C   0  0  0  0  0  0  0  0  0  0  0  0
    1.7639   -3.5336    0.0799 C   0  0  0  0  0  0  0  0  0  0  0  0
    3.0491   -3.7488   -0.0490 C   0  0  0  0  0  0  0  0  0  0  0  0
    3.9861   -2.8645    0.6073 C   0  0  0  0  0  0  0  0  0  0  0  0
    4.9468   -2.2242   -0.1849 C   0  0  0  0  0  0  0  0  0  0  0  0
    5.8857   -1.3635    0.3100 C   0  0  0  0  0  0  0  0  0  0  0  0
    6.8257   -0.7292   -0.4656 C   0  0  0  0  0  0  0  0  0  0  0  0
    7.7483    0.1301    0.0567 C   0  0  0  0  0  0  0  0  0  0  0  0
    7.7420    0.3767    1.4271 C   0  0  0  0  0  0  0  0  0  0  0  0
    8.7075    1.2663    1.9457 N   0  0  0  0  0  0  0  0  0  0  0  0
    9.9868    0.7853    2.4182 C   0  0  0  0  0  0  0  0  0  0  0  0
   10.0362   -0.7443    2.2679 C   0  0  0  0  0  0  0  0  0  0  0  0
    8.4265    2.6818    2.0065 C   0  0  0  0  0  0  0  0  0  0  0  0
    9.3151    3.4308    1.0282 C   0  0  0  0  0  0  0  0  0  0  0  0
    6.7915   -0.2697    2.1861 C   0  0  0  0  0  0  0  0  0  0  0  0
    5.8490   -1.1379    1.6994 C   0  0  0  0  0  0  0  0  0  0  0  0
    4.9477   -1.7432    2.4349 O   0  0  0  0  0  0  0  0  0  0  0  0
    4.0431   -2.5750    1.9435 C   0  0  0  0  0  0  0  0  0  0  0  0
    3.2018   -3.1326    2.7037 O   0  0  0  0  0  0  0  0  0  0  0  0
    0.6286   -4.2788   -0.5321 C   0  0  0  0  0  0  0  0  0  0  0  0
    0.5340   -5.4379   -0.9561 O   0  0  0  0  0  3  0  0  0  0  0  0
   -0.7202   -5.9509   -1.5328 B   0  0  0  0  0  4  0  0  0  0  0  0
   -0.4119   -6.2618   -2.9506 F   0  0  0  0  0  0  0  0  0  0  0  0
   -1.1376   -7.2069   -0.9238 F   0  0  0  0  0  0  0  0  0  0  0  0
   -1.8197   -4.9474   -1.5023 O   0  0  0  0  0  0  0  0  0  0  0  0
   -6.1794   -1.9477   -2.1563 C   0  0  0  0  0  0  0  0  0  0  0  0
   -6.4739   -3.0595   -2.7176 O   0  0  0  0  0  0  0  0  0  0  0  0
   -7.0450   -0.9669   -2.1799 O   0  0  0  0  0  0  0  0  0  0  0  0
   -6.8388    0.2185   -1.6312 C   0  0  0  0  0  0  0  0  0  0  0  0
   -7.7639    1.2297   -1.6772 C   0  0  0  0  0  0  0  0  0  0  0  0
   -6.3147    5.7453   -0.8457 H   0  0  0  0  0  0  0  0  0  0  0  0
   -6.1983    4.4403   -2.1285 H   0  0  0  0  0  0  0  0  0  0  0  0
   -6.7826    6.0963   -2.5063 H   0  0  0  0  0  0  0  0  0  0  0  0
   -8.5204    5.4945   -0.4720 H   0  0  0  0  0  0  0  0  0  0  0  0
   -8.8453    5.3039   -2.2296 H   0  0  0  0  0  0  0  0  0  0  0  0
  -10.0348    2.0807   -1.0643 H   0  0  0  0  0  0  0  0  0  0  0  0
  -10.4977    3.6358   -1.7924 H   0  0  0  0  0  0  0  0  0  0  0  0
  -11.4257    4.0253    0.2479 H   0  0  0  0  0  0  0  0  0  0  0  0
  -10.4374    2.7773    1.0235 H   0  0  0  0  0  0  0  0  0  0  0  0
   -9.6904    4.3786    0.7712 H   0  0  0  0  0  0  0  0  0  0  0  0
   -6.0408    3.6105    0.0524 H   0  0  0  0  0  0  0  0  0  0  0  0
   -4.4513    1.8277    0.0887 H   0  0  0  0  0  0  0  0  0  0  0  0
   -3.7955   -0.3387   -0.4294 H   0  0  0  0  0  0  0  0  0  0  0  0
   -4.1848   -3.8547   -1.9407 H   0  0  0  0  0  0  0  0  0  0  0  0
   -2.5349   -1.6516   -0.7111 H   0  0  0  0  0  0  0  0  0  0  0  0
   -0.8205   -1.4868    0.5503 H   0  0  0  0  0  0  0  0  0  0  0  0
    0.3611   -1.3845   -0.8136 H   0  0  0  0  0  0  0  0  0  0  0  0
    1.8463   -1.6129    0.9532 H   0  0  0  0  0  0  0  0  0  0  0  0
    0.7132   -2.7171    1.8115 H   0  0  0  0  0  0  0  0  0  0  0  0
    3.4044   -4.5739   -0.6393 H   0  0  0  0  0  0  0  0  0  0  0  0
    4.9338   -2.4329   -1.2472 H   0  0  0  0  0  0  0  0  0  0  0  0
    6.8289   -0.9242   -1.5255 H   0  0  0  0  0  0  0  0  0  0  0  0
    8.4986    0.6392   -0.5625 H   0  0  0  0  0  0  0  0  0  0  0  0
   10.1998    1.0395    3.4571 H   0  0  0  0  0  0  0  0  0  0  0  0
   10.8136    1.1940    1.7912 H   0  0  0  0  0  0  0  0  0  0  0  0
   11.0736   -1.1090    2.1377 H   0  0  0  0  0  0  0  0  0  0  0  0
    9.4601   -1.0596    1.3598 H   0  0  0  0  0  0  0  0  0  0  0  0
    9.6486   -1.2387    3.1872 H   0  0  0  0  0  0  0  0  0  0  0  0
    7.3645    2.9253    1.7895 H   0  0  0  0  0  0  0  0  0  0  0  0
    8.7284    3.0119    3.0369 H   0  0  0  0  0  0  0  0  0  0  0  0
   10.0991    2.7260    0.6347 H   0  0  0  0  0  0  0  0  0  0  0  0
    8.6944    3.7131    0.1669 H   0  0  0  0  0  0  0  0  0  0  0  0
    9.7799    4.3229    1.4601 H   0  0  0  0  0  0  0  0  0  0  0  0
    6.7886   -0.0777    3.2609 H   0  0  0  0  0  0  0  0  0  0  0  0
   -8.7001    1.0762   -2.1757 H   0  0  0  0  0  0  0  0  0  0  0  0
  1  2  1  0
  2  3  1  0
  3  4  1  0
  4  5  1  0
  3  6  1  0
  6  7  2  0
  7  8  1  0
  8  9  2  0
  9 10  1  0
 10 11  2  0
 11 12  1  0
 12 13  2  0
 13 14  1  0
 14 15  2  0
 15 16  1  0
 16 17  1  0
 17 18  1  0
 18 19  2  0
 19 20  1  0
 20 21  2  0
 21 22  1  0
 22 23  2  0
 23 24  1  0
 24 25  2  0
 25 26  1  0
 26 27  1  0
 27 28  1  0
 26 29  1  0
 29 30  1  0
 25 31  1  0
 31 32  2  0
 32 33  1  0
 33 34  1  0
 34 35  2  0
 18 36  1  0
 36 37  2  0
 37 38  1  0
 38 39  1  0
 38 40  1  0
 38 41  1  0
 11 42  1  0
 42 43  2  0
 42 44  1  0
 44 45  1  0
 45 46  2  0
 46  6  1  0
 45  9  1  0
 41 14  1  0
 36 15  1  0
 34 20  1  0
 32 22  1  0
  1 47  1  0
  1 48  1  0
  1 49  1  0
  2 50  1  0
  2 51  1  0
  4 52  1  0
  4 53  1  0
  5 54  1  0
  5 55  1  0
  5 56  1  0
  7 57  1  0
  8 58  1  0
 10 59  1  0
 12 60  1  0
 13 61  1  0
 16 62  1  0
 16 63  1  0
 17 64  1  0
 17 65  1  0
 19 66  1  0
 21 67  1  0
 23 68  1  0
 24 69  1  0
 27 70  1  0
 27 71  1  0
 28 72  1  0
 28 73  1  0
 28 74  1  0
 29 75  1  0
 29 76  1  0
 30 77  1  0
 30 78  1  0
 30 79  1  0
 31 80  1  0
 46 81  1  0
M  CHG  2  37   1  38  -1
M  END
