
     RDKit          3D

 74 78  0  0  0  0  0  0  0  0999 V2000
   -2.4631    2.5235   -0.5059 C   0  0  0  0  0  0  0  0  0  0  0  0
   -2.8950    1.0276   -0.5690 C   0  0  0  0  0  0  0  0  0  0  0  0
   -3.9770    0.6596   -0.1872 C   0  0  0  0  0  0  0  0  0  0  0  0
   -4.9875    1.6098    0.4393 C   0  0  0  0  0  0  0  0  0  0  0  0
   -5.8547    2.4203    0.9892 C   0  0  0  0  0  0  0  0  0  0  0  0
   -6.7560    3.2688    1.5536 C   0  0  0  0  0  0  0  0  0  0  0  0
   -7.5371    4.1292    0.7831 C   0  0  0  0  0  0  0  0  0  0  0  0
   -8.4338    5.0084    1.3002 C   0  0  0  0  0  0  0  0  0  0  0  0
   -8.5851    5.0545    2.6446 C   0  0  0  0  0  0  0  0  0  0  0  0
   -7.8101    4.1846    3.5001 C   0  0  0  0  0  0  0  0  0  0  0  0
   -6.9378    3.3423    2.9206 C   0  0  0  0  0  0  0  0  0  0  0  0
   -4.6800   -0.6376   -0.3262 C   0  0  0  0  0  0  0  0  0  0  0  0
   -5.1855   -1.5972   -0.4142 C   0  0  0  0  0  0  0  0  0  0  0  0
   -5.8593   -2.9231   -0.5209 C   0  0  0  0  0  0  0  0  0  0  0  0
   -7.2155   -2.9490   -0.7427 C   0  0  0  0  0  0  0  0  0  0  0  0
   -7.8898   -4.1467   -0.8599 C   0  0  0  0  0  0  0  0  0  0  0  0
   -7.2344   -5.3129   -0.7511 C   0  0  0  0  0  0  0  0  0  0  0  0
   -5.8849   -5.3062   -0.5304 C   0  0  0  0  0  0  0  0  0  0  0  0
   -5.1866   -4.0678   -0.4191 C   0  0  0  0  0  0  0  0  0  0  0  0
   -1.6897    0.1610   -0.7350 C   0  0  0  0  0  0  0  0  0  0  0  0
   -1.0873   -0.0842   -1.9118 C   0  0  0  0  0  0  0  0  0  0  0  0
    0.2365   -0.5341   -1.8533 C   0  0  0  0  0  0  0  0  0  0  0  0
    0.9414   -0.7404   -0.7060 C   0  0  0  0  0  0  0  0  0  0  0  0
    2.3759   -0.8759   -0.5720 C   0  0  0  0  0  0  0  0  0  0  0  0
    2.6187    0.8490   -0.2291 C   0  0  0  0  0  0  0  0  0  0  0  0
    3.5137   -1.1572   -0.6404 C   0  0  0  0  0  0  0  0  0  0  0  0
    4.4519   -0.3503    0.4218 C   0  0  0  0  0  0  0  0  0  0  0  0
    5.1769    0.2570    1.2113 C   0  0  0  0  0  0  0  0  0  0  0  0
    5.9907    0.9573    2.0828 C   0  0  0  0  0  0  0  0  0  0  0  0
    6.6410    2.1514    1.6351 C   0  0  0  0  0  0  0  0  0  0  0  0
    7.5014    2.8199    2.4394 C   0  0  0  0  0  0  0  0  0  0  0  0
    7.7325    2.3126    3.7239 C   0  0  0  0  0  0  0  0  0  0  0  0
    7.0985    1.1700    4.1472 C   0  0  0  0  0  0  0  0  0  0  0  0
    6.2158    0.4730    3.3473 C   0  0  0  0  0  0  0  0  0  0  0  0
    4.4874   -1.6256   -1.5440 C   0  0  0  0  0  0  0  0  0  0  0  0
    5.3100   -2.0094   -2.2839 C   0  0  0  0  0  0  0  0  0  0  0  0
    6.5125   -2.5575   -3.3273 C   0  0  0  0  0  0  0  0  0  0  0  0
    6.8397   -3.6662   -3.2248 C   0  0  0  0  0  0  0  0  0  0  0  0
    8.3105   -3.8815   -3.1966 C   0  0  0  0  0  0  0  0  0  0  0  0
    9.0409   -2.7418   -3.3012 C   0  0  0  0  0  0  0  0  0  0  0  0
    8.5688   -1.4456   -3.4210 C   0  0  0  0  0  0  0  0  0  0  0  0
    7.1151   -1.2088   -3.4419 C   0  0  0  0  0  0  0  0  0  0  0  0
    0.2538   -0.4821    0.5089 C   0  0  0  0  0  0  0  0  0  0  0  0
   -1.0239   -0.0449    0.5069 C   0  0  0  0  0  0  0  0  0  0  0  0
   -2.0046    2.6804    0.4605 H   0  0  0  0  0  0  0  0  0  0  0  0
   -3.2850    3.1257   -0.8044 H   0  0  0  0  0  0  0  0  0  0  0  0
   -1.6490    2.5894   -1.2955 H   0  0  0  0  0  0  0  0  0  0  0  0
   -7.4517    4.0977   -0.3262 H   0  0  0  0  0  0  0  0  0  0  0  0
   -9.0004    5.6475    0.6320 H   0  0  0  0  0  0  0  0  0  0  0  0
   -9.2716    5.7273    3.1083 H   0  0  0  0  0  0  0  0  0  0  0  0
   -8.0242    4.2942    4.5308 H   0  0  0  0  0  0  0  0  0  0  0  0
   -6.3116    2.6510    3.5060 H   0  0  0  0  0  0  0  0  0  0  0  0
   -7.7386   -2.0031   -0.8256 H   0  0  0  0  0  0  0  0  0  0  0  0
   -8.9558   -4.0898   -1.0172 H   0  0  0  0  0  0  0  0  0  0  0  0
   -7.7934   -6.2717   -0.8261 H   0  0  0  0  0  0  0  0  0  0  0  0
   -5.3076   -6.2339   -0.4389 H   0  0  0  0  0  0  0  0  0  0  0  0
   -4.1212   -4.1461   -0.2553 H   0  0  0  0  0  0  0  0  0  0  0  0
   -1.5863    0.0555   -2.8908 H   0  0  0  0  0  0  0  0  0  0  0  0
    0.7417   -0.7555   -2.7907 H   0  0  0  0  0  0  0  0  0  0  0  0
    2.1461    0.8730    0.7014 H   0  0  0  0  0  0  0  0  0  0  0  0
    2.0911    1.1415   -1.1649 H   0  0  0  0  0  0  0  0  0  0  0  0
    3.6443    0.9656   -0.4177 H   0  0  0  0  0  0  0  0  0  0  0  0
    6.3871    2.4797    0.6160 H   0  0  0  0  0  0  0  0  0  0  0  0
    7.9955    3.6984    2.1006 H   0  0  0  0  0  0  0  0  0  0  0  0
    8.4299    2.8554    4.3436 H   0  0  0  0  0  0  0  0  0  0  0  0
    7.2985    0.7743    5.1679 H   0  0  0  0  0  0  0  0  0  0  0  0
    5.7186   -0.4424    3.6767 H   0  0  0  0  0  0  0  0  0  0  0  0
    6.2423   -4.5764   -3.1375 H   0  0  0  0  0  0  0  0  0  0  0  0
    8.6534   -4.8581   -3.1047 H   0  0  0  0  0  0  0  0  0  0  0  0
   10.1924   -2.8474   -3.2785 H   0  0  0  0  0  0  0  0  0  0  0  0
    9.2338   -0.6220   -3.4921 H   0  0  0  0  0  0  0  0  0  0  0  0
    6.6857   -0.3243   -3.5480 H   0  0  0  0  0  0  0  0  0  0  0  0
    0.8352   -0.6818    1.4065 H   0  0  0  0  0  0  0  0  0  0  0  0
   -1.5547    0.1621    1.4233 H   0  0  0  0  0  0  0  0  0  0  0  0
  1  2  1  0
  2  3  2  3
  3  4  1  0
  4  5  3  0
  5  6  1  0
  6  7  2  0
  7  8  1  0
  8  9  2  0
  9 10  1  0
 10 11  2  0
  3 12  1  0
 12 13  3  0
 13 14  1  0
 14 15  2  0
 15 16  1  0
 16 17  2  0
 17 18  1  0
 18 19  2  0
  2 20  1  0
 20 21  2  0
 21 22  1  0
 22 23  2  0
 23 24  1  0
 24 25  1  0
 24 26  2  3
 26 27  1  0
 27 28  3  0
 28 29  1  0
 29 30  2  0
 30 31  1  0
 31 32  2  0
 32 33  1  0
 33 34  2  0
 26 35  1  0
 35 36  3  0
 36 37  1  0
 37 38  2  0
 38 39  1  0
 39 40  2  0
 40 41  1  0
 41 42  2  0
 23 43  1  0
 43 44  2  0
 11  6  1  0
 19 14  1  0
 44 20  1  0
 34 29  1  0
 42 37  1  0
  1 45  1  0
  1 46  1  0
  1 47  1  0
  7 48  1  0
  8 49  1  0
  9 50  1  0
 10 51  1  0
 11 52  1  0
 15 53  1  0
 16 54  1  0
 17 55  1  0
 18 56  1  0
 19 57  1  0
 21 58  1  0
 22 59  1  0
 25 60  1  0
 25 61  1  0
 25 62  1  0
 30 63  1  0
 31 64  1  0
 32 65  1  0
 33 66  1  0
 34 67  1  0
 38 68  1  0
 39 69  1  0
 40 70  1  0
 41 71  1  0
 42 72  1  0
 43 73  1  0
 44 74  1  0
M  END
