
     RDKit          3D

 36 37  0  0  0  0  0  0  0  0999 V2000
    6.0705    0.9442    2.3174 C   0  0  0  0  0  0  0  0  0  0  0  0
    5.1081    0.5895    1.2294 C   0  0  0  0  0  0  0  0  0  0  0  0
    3.7982    0.5714    1.3797 C   0  0  0  0  0  0  0  0  0  0  0  0
    2.9367    0.1980    0.2132 C   0  0  0  0  0  0  0  0  0  0  0  0
    1.6423    0.1815    0.3683 C   0  0  0  0  0  0  0  0  0  0  0  0
    0.6944   -0.1660   -0.6803 C   0  0  0  0  0  0  0  0  0  0  0  0
   -0.6122   -0.1352   -0.4538 N   0  0  0  0  0  0  0  0  0  0  0  0
   -1.3384   -0.5071   -1.5948 C   0  0  0  0  0  0  0  0  0  0  0  0
   -2.6609   -0.5786   -1.7288 C   0  0  0  0  0  0  0  0  0  0  0  0
   -3.5179   -0.2396   -0.5988 C   0  0  0  0  0  0  0  0  0  0  0  0
   -3.2464    0.9497    0.0810 C   0  0  0  0  0  0  0  0  0  0  0  0
   -3.9924    1.3446    1.1769 C   0  0  0  0  0  0  0  0  0  0  0  0
   -5.0246    0.5508    1.6096 C   0  0  0  0  0  0  0  0  0  0  0  0
   -5.7887    0.9181    2.7025 O   0  0  0  0  0  0  0  0  0  0  0  0
   -5.3038   -0.6445    0.9319 C   0  0  0  0  0  0  0  0  0  0  0  0
   -4.5530   -1.0241   -0.1576 C   0  0  0  0  0  0  0  0  0  0  0  0
   -0.3450   -0.7900   -2.6103 C   0  0  0  0  0  0  0  0  0  0  0  0
   -0.5486   -1.1621   -3.7991 O   0  0  0  0  0  0  0  0  0  0  0  0
    0.9592   -0.5665   -2.0054 N   0  0  0  0  0  0  0  0  0  0  0  0
    2.1916   -0.7499   -2.7158 C   0  0  0  0  0  0  0  0  0  0  0  0
    6.8793    1.5574    1.8604 H   0  0  0  0  0  0  0  0  0  0  0  0
    6.5832    0.0258    2.7266 H   0  0  0  0  0  0  0  0  0  0  0  0
    5.6136    1.5437    3.1171 H   0  0  0  0  0  0  0  0  0  0  0  0
    5.5083    0.3262    0.2363 H   0  0  0  0  0  0  0  0  0  0  0  0
    3.3937    0.8231    2.3295 H   0  0  0  0  0  0  0  0  0  0  0  0
    3.4088   -0.0317   -0.7042 H   0  0  0  0  0  0  0  0  0  0  0  0
    1.2759    0.4521    1.3742 H   0  0  0  0  0  0  0  0  0  0  0  0
   -3.0971   -0.8818   -2.6513 H   0  0  0  0  0  0  0  0  0  0  0  0
   -2.4377    1.5890   -0.2472 H   0  0  0  0  0  0  0  0  0  0  0  0
   -3.7578    2.2893    1.6945 H   0  0  0  0  0  0  0  0  0  0  0  0
   -6.5527    0.3241    3.0184 H   0  0  0  0  0  0  0  0  0  0  0  0
   -6.1070   -1.2978    1.2395 H   0  0  0  0  0  0  0  0  0  0  0  0
   -4.7589   -1.9563   -0.6865 H   0  0  0  0  0  0  0  0  0  0  0  0
    1.9451   -1.1203   -3.7500 H   0  0  0  0  0  0  0  0  0  0  0  0
    2.7568    0.1907   -2.9177 H   0  0  0  0  0  0  0  0  0  0  0  0
    2.8774   -1.4849   -2.3049 H   0  0  0  0  0  0  0  0  0  0  0  0
  1  2  1  0
  2  3  2  0
  3  4  1  0
  4  5  2  0
  5  6  1  0
  6  7  2  0
  7  8  1  0
  8  9  2  0
  9 10  1  0
 10 11  2  0
 11 12  1  0
 12 13  2  0
 13 14  1  0
 13 15  1  0
 15 16  2  0
  8 17  1  0
 17 18  2  0
 17 19  1  0
 19 20  1  0
 19  6  1  0
 16 10  1  0
  1 21  1  0
  1 22  1  0
  1 23  1  0
  2 24  1  0
  3 25  1  0
  4 26  1  0
  5 27  1  0
  9 28  1  0
 11 29  1  0
 12 30  1  0
 14 31  1  0
 15 32  1  0
 16 33  1  0
 20 34  1  0
 20 35  1  0
 20 36  1  0
M  END
