
     RDKit          3D

 64 66  0  0  0  0  0  0  0  0999 V2000
   -3.6384   -2.4409   -3.0240 C   0  0  0  0  0  0  0  0  0  0  0  0
   -3.2368   -2.3270   -1.8633 O   0  0  0  0  0  0  0  0  0  0  0  0
   -2.4146   -1.8734   -0.8901 C   0  0  0  0  0  0  0  0  0  0  0  0
   -1.4338   -0.8124   -1.1224 C   0  0  0  0  0  0  0  0  0  0  0  0
   -0.7716   -0.5255    0.0823 C   0  0  0  0  0  0  0  0  0  0  0  0
    0.3716    0.4321   -0.2106 N   0  0  0  0  0  0  0  0  0  0  0  0
    0.1865    1.6631   -0.7936 C   0  0  0  0  0  0  0  0  0  0  0  0
    1.0222    2.1739   -1.8581 C   0  0  0  0  0  0  0  0  0  0  0  0
    0.8333    3.5098   -2.0255 C   0  0  0  0  0  0  0  0  0  0  0  0
    0.0097    4.3776   -1.4099 C   0  0  0  0  0  0  0  0  0  0  0  0
   -0.0860    5.8065   -1.5887 C   0  0  0  0  0  0  0  0  0  0  0  0
    0.0058    6.6411   -0.5570 C   0  0  0  0  0  0  0  0  0  0  0  0
   -0.0869    7.9535   -0.4433 C   0  0  0  0  0  0  0  0  0  0  0  0
   -0.1878    9.2314   -0.3407 N   0  0  0  0  0  0  0  0  0  0  0  0
    0.3393    6.1281    0.7421 C   0  0  0  0  0  0  0  0  0  0  0  0
    0.6510    5.6408    2.0185 N   0  0  0  0  0  0  0  0  0  0  0  0
   -0.8761    3.8565   -0.3719 C   0  0  0  0  0  0  0  0  0  0  0  0
   -1.6860    4.8389    0.1093 O   0  0  0  0  0  0  0  0  0  0  0  0
   -2.6445    4.2759    1.1577 C   0  0  0  0  0  0  0  0  0  0  0  0
   -0.7047    2.5747   -0.1545 C   0  0  0  0  0  0  0  0  0  0  0  0
    1.5988   -0.1508    0.2947 C   0  0  0  0  0  0  0  0  0  0  0  0
    2.0944   -0.3486    1.4187 C   0  0  0  0  0  0  0  0  0  0  0  0
    2.9150   -1.1725    2.0607 C   0  0  0  0  0  0  0  0  0  0  0  0
    3.4403   -2.2801    1.1171 C   0  0  0  0  0  0  0  0  0  0  0  0
    4.4585   -3.0419    1.7088 C   0  0  0  0  0  0  0  0  0  0  0  0
    5.5801   -2.4187    2.1510 C   0  0  0  0  0  0  0  0  0  0  0  0
    6.6558   -2.9352    2.7264 C   0  0  0  0  0  0  0  0  0  0  0  0
    7.5353   -3.3767    3.2010 N   0  0  0  0  0  0  0  0  0  0  0  0
    5.3482   -0.9848    2.0841 C   0  0  0  0  0  0  0  0  0  0  0  0
    5.1527    0.2876    2.0253 N   0  0  0  0  0  0  0  0  0  0  0  0
    2.9219   -2.1123   -0.0695 C   0  0  0  0  0  0  0  0  0  0  0  0
    3.2667   -3.2660   -0.9425 O   0  0  0  0  0  0  0  0  0  0  0  0
    3.1459   -3.5852   -2.1650 C   0  0  0  0  0  0  0  0  0  0  0  0
    2.1214   -1.3073   -0.7034 C   0  0  0  0  0  0  0  0  0  0  0  0
   -0.8623   -0.9665    1.1829 C   0  0  0  0  0  0  0  0  0  0  0  0
   -1.7713   -2.0328    1.4815 C   0  0  0  0  0  0  0  0  0  0  0  0
   -2.5534   -2.4310    0.3851 C   0  0  0  0  0  0  0  0  0  0  0  0
   -3.6669   -3.2210    0.6936 C   0  0  0  0  0  0  0  0  0  0  0  0
   -4.6035   -3.9597    0.9514 C   0  0  0  0  0  0  0  0  0  0  0  0
   -4.7450   -5.5257    0.9352 C   0  0  0  0  0  0  0  0  0  0  0  0
   -4.8356   -6.5470    0.9351 N   0  0  0  0  0  0  0  0  0  0  0  0
   -5.7667   -3.3350    1.6138 C   0  0  0  0  0  0  0  0  0  0  0  0
   -6.7944   -2.7807    2.2222 N   0  0  0  0  0  0  0  0  0  0  0  0
   -3.2627   -3.3071   -3.6221 H   0  0  0  0  0  0  0  0  0  0  0  0
   -3.6330   -1.4819   -3.7312 H   0  0  0  0  0  0  0  0  0  0  0  0
   -4.8037   -2.6515   -3.1340 H   0  0  0  0  0  0  0  0  0  0  0  0
   -1.3605   -0.4567   -2.0309 H   0  0  0  0  0  0  0  0  0  0  0  0
    1.6855    1.5600   -2.4007 H   0  0  0  0  0  0  0  0  0  0  0  0
    1.5334    3.9782   -2.8446 H   0  0  0  0  0  0  0  0  0  0  0  0
   -0.2464    6.2560   -2.5281 H   0  0  0  0  0  0  0  0  0  0  0  0
   -2.8336    5.1140    1.8237 H   0  0  0  0  0  0  0  0  0  0  0  0
   -3.5275    4.0922    0.5713 H   0  0  0  0  0  0  0  0  0  0  0  0
   -2.1999    3.4248    1.6388 H   0  0  0  0  0  0  0  0  0  0  0  0
   -1.3682    2.1115    0.6153 H   0  0  0  0  0  0  0  0  0  0  0  0
    1.6974    0.4537    2.2604 H   0  0  0  0  0  0  0  0  0  0  0  0
    3.1996   -1.3121    3.0325 H   0  0  0  0  0  0  0  0  0  0  0  0
    4.4220   -4.0904    1.8879 H   0  0  0  0  0  0  0  0  0  0  0  0
    3.9789   -4.2945   -2.5715 H   0  0  0  0  0  0  0  0  0  0  0  0
    2.1680   -4.0389   -2.5196 H   0  0  0  0  0  0  0  0  0  0  0  0
    3.2840   -2.6796   -2.8633 H   0  0  0  0  0  0  0  0  0  0  0  0
    1.7199   -1.1859   -1.6460 H   0  0  0  0  0  0  0  0  0  0  0  0
   -0.3079   -0.6245    2.1479 H   0  0  0  0  0  0  0  0  0  0  0  0
   -1.8973   -2.4082    2.3970 H   0  0  0  0  0  0  0  0  0  0  0  0
   -4.5363   -2.0921    0.7530 H   0  0  0  0  0  0  0  0  0  0  0  0
  1  2  1  0
  2  3  1  0
  3  4  2  0
  4  5  1  0
  5  6  1  0
  6  7  1  0
  7  8  2  0
  8  9  1  0
  9 10  2  0
 10 11  1  0
 11 12  2  3
 12 13  1  0
 13 14  3  0
 12 15  1  0
 15 16  3  0
 10 17  1  0
 17 18  1  0
 18 19  1  0
 17 20  2  0
  6 21  1  0
 21 22  2  0
 22 23  1  0
 23 24  2  0
 24 25  1  0
 25 26  2  3
 26 27  1  0
 27 28  3  0
 26 29  1  0
 29 30  3  0
 24 31  1  0
 31 32  1  0
 32 33  1  0
 31 34  2  0
  5 35  2  0
 35 36  1  0
 36 37  2  0
 37 38  1  0
 38 39  2  3
 39 40  1  0
 40 41  3  0
 39 42  1  0
 42 43  3  0
 37  3  1  0
 20  7  1  0
 34 21  1  0
  1 44  1  0
  1 45  1  0
  1 46  1  0
  4 47  1  0
  8 48  1  0
  9 49  1  0
 11 50  1  0
 19 51  1  0
 19 52  1  0
 19 53  1  0
 20 54  1  0
 22 55  1  0
 23 56  1  0
 25 57  1  0
 33 58  1  0
 33 59  1  0
 33 60  1  0
 34 61  1  0
 35 62  1  0
 36 63  1  0
 38 64  1  0
M  END
