
     RDKit          3D

 34 37  0  0  0  0  0  0  0  0999 V2000
   -1.0213   -0.6438    2.0846 C   0  0  0  0  0  0  0  0  0  0  0  0
   -0.8512   -0.7432    0.6110 C   0  0  0  0  0  0  0  0  0  0  0  0
   -0.7803   -2.2154    0.1847 C   0  0  0  0  0  0  0  0  0  0  0  0
    0.3646   -0.0157    0.1033 C   0  0  0  0  0  0  0  0  0  0  0  0
   -0.0468    0.8403   -0.7641 C   0  0  0  0  0  0  0  0  0  0  0  0
   -1.5059    0.8235   -0.9622 C   0  0  0  0  0  0  0  0  0  0  0  0
   -2.3233    1.5648   -1.7810 C   0  0  0  0  0  0  0  0  0  0  0  0
   -3.6958    1.3490   -1.7787 C   0  0  0  0  0  0  0  0  0  0  0  0
   -4.1709    0.3668   -0.9223 C   0  0  0  0  0  0  0  0  0  0  0  0
   -3.3524   -0.3702   -0.1074 C   0  0  0  0  0  0  0  0  0  0  0  0
   -1.9662   -0.1428   -0.1185 C   0  0  0  0  0  0  0  0  0  0  0  0
    1.3683    1.7147   -1.3810 S   0  0  0  0  0  6  0  0  0  0  0  0
    1.5198    1.3919   -2.8320 O   0  0  0  0  0  0  0  0  0  0  0  0
    1.2946    3.1546   -1.0838 O   0  0  0  0  0  0  0  0  0  0  0  0
    2.5282    0.8539   -0.3994 C   0  0  0  0  0  0  0  0  0  0  0  0
    3.9204    0.9672   -0.3022 C   0  0  0  0  0  0  0  0  0  0  0  0
    4.6052    0.1515    0.5672 C   0  0  0  0  0  0  0  0  0  0  0  0
    3.9169   -0.7632    1.3288 C   0  0  0  0  0  0  0  0  0  0  0  0
    2.5585   -0.8428    1.2048 C   0  0  0  0  0  0  0  0  0  0  0  0
    1.8106   -0.0424    0.3405 C   0  0  0  0  0  0  0  0  0  0  0  0
   -1.9702   -0.0829    2.3279 H   0  0  0  0  0  0  0  0  0  0  0  0
   -0.2009   -0.1849    2.6273 H   0  0  0  0  0  0  0  0  0  0  0  0
   -1.1797   -1.6589    2.5031 H   0  0  0  0  0  0  0  0  0  0  0  0
   -1.7791   -2.6705    0.1639 H   0  0  0  0  0  0  0  0  0  0  0  0
   -0.3816   -2.1965   -0.8717 H   0  0  0  0  0  0  0  0  0  0  0  0
   -0.0365   -2.7388    0.7875 H   0  0  0  0  0  0  0  0  0  0  0  0
   -1.9346    2.3229   -2.4389 H   0  0  0  0  0  0  0  0  0  0  0  0
   -4.3793    1.8956   -2.3944 H   0  0  0  0  0  0  0  0  0  0  0  0
   -5.2413    0.1407   -0.8660 H   0  0  0  0  0  0  0  0  0  0  0  0
   -3.6933   -1.1375    0.5662 H   0  0  0  0  0  0  0  0  0  0  0  0
    4.4133    1.6962   -0.9173 H   0  0  0  0  0  0  0  0  0  0  0  0
    5.6772    0.1986    0.6799 H   0  0  0  0  0  0  0  0  0  0  0  0
    4.4716   -1.4124    2.0222 H   0  0  0  0  0  0  0  0  0  0  0  0
    2.0613   -1.5705    1.8180 H   0  0  0  0  0  0  0  0  0  0  0  0
  1  2  1  0
  2  3  1  0
  2  4  1  0
  4  5  2  0
  5  6  1  0
  6  7  2  0
  7  8  1  0
  8  9  2  0
  9 10  1  0
 10 11  2  0
  5 12  1  0
 12 13  2  0
 12 14  2  0
 12 15  1  0
 15 16  2  0
 16 17  1  0
 17 18  2  0
 18 19  1  0
 19 20  2  0
 11  2  1  0
 20 15  1  0
 20  4  1  0
 11  6  1  0
  1 21  1  0
  1 22  1  0
  1 23  1  0
  3 24  1  0
  3 25  1  0
  3 26  1  0
  7 27  1  0
  8 28  1  0
  9 29  1  0
 10 30  1  0
 16 31  1  0
 17 32  1  0
 18 33  1  0
 19 34  1  0
M  END
