
     RDKit          3D

 16 16  0  0  0  0  0  0  0  0999 V2000
    2.4106    1.3583   -0.4436 O   0  0  0  0  0  0  0  0  0  0  0  0
    1.9807    0.1762   -0.4294 C   0  0  0  0  0  0  0  0  0  0  0  0
    2.8855   -0.8256   -0.6915 O   0  0  0  0  0  0  0  0  0  0  0  0
    0.5720   -0.0665   -0.1412 C   0  0  0  0  0  0  0  0  0  0  0  0
    0.0392   -1.3348   -0.1105 C   0  0  0  0  0  0  0  0  0  0  0  0
   -1.3055   -1.5570    0.1652 C   0  0  0  0  0  0  0  0  0  0  0  0
   -2.1365   -0.4843    0.4161 C   0  0  0  0  0  0  0  0  0  0  0  0
   -1.6254    0.7900    0.3904 C   0  0  0  0  0  0  0  0  0  0  0  0
   -0.2746    0.9885    0.1118 C   0  0  0  0  0  0  0  0  0  0  0  0
    0.2613    2.2703    0.0813 O   0  0  0  0  0  0  0  0  0  0  0  0
    3.8928   -0.7034   -0.6891 H   0  0  0  0  0  0  0  0  0  0  0  0
    0.6947   -2.1805   -0.3084 H   0  0  0  0  0  0  0  0  0  0  0  0
   -1.7009   -2.5586    0.1840 H   0  0  0  0  0  0  0  0  0  0  0  0
   -3.1743   -0.6120    0.6318 H   0  0  0  0  0  0  0  0  0  0  0  0
   -2.2376    1.6395    0.5792 H   0  0  0  0  0  0  0  0  0  0  0  0
   -0.2821    3.1000    0.2539 H   0  0  0  0  0  0  0  0  0  0  0  0
  1  2  2  0
  2  3  1  0
  2  4  1  0
  4  5  2  0
  5  6  1  0
  6  7  2  0
  7  8  1  0
  8  9  2  0
  9 10  1  0
  9  4  1  0
  3 11  1  0
  5 12  1  0
  6 13  1  0
  7 14  1  0
  8 15  1  0
 10 16  1  0
M  END
