
     RDKit          3D

 25 26  0  0  0  0  0  0  0  0999 V2000
    4.3375    0.0096   -0.2119 C   0  0  0  0  0  0  0  0  0  0  0  0
    2.8527    0.0352   -0.2010 C   0  0  0  0  0  0  0  0  0  0  0  0
    2.1638   -1.1551   -0.3053 C   0  0  0  0  0  0  0  0  0  0  0  0
    0.8067   -1.1364   -0.2951 C   0  0  0  0  0  0  0  0  0  0  0  0
    0.0818    0.0417   -0.1829 C   0  0  0  0  0  0  0  0  0  0  0  0
   -1.3907    0.0074   -0.1750 C   0  0  0  0  0  0  0  0  0  0  0  0
   -2.1366    1.0476   -0.6875 C   0  0  0  0  0  0  0  0  0  0  0  0
   -3.5297    1.0112   -0.6759 C   0  0  0  0  0  0  0  0  0  0  0  0
   -4.2071   -0.0609   -0.1541 C   0  0  0  0  0  0  0  0  0  0  0  0
   -3.4709   -1.1054    0.3604 C   0  0  0  0  0  0  0  0  0  0  0  0
   -2.0888   -1.0634    0.3460 C   0  0  0  0  0  0  0  0  0  0  0  0
    0.7913    1.2069   -0.0810 C   0  0  0  0  0  0  0  0  0  0  0  0
    2.1842    1.2266   -0.0879 C   0  0  0  0  0  0  0  0  0  0  0  0
    4.7732    0.7873   -0.8763 H   0  0  0  0  0  0  0  0  0  0  0  0
    4.6913    0.1048    0.8348 H   0  0  0  0  0  0  0  0  0  0  0  0
    4.6971   -0.9863   -0.5608 H   0  0  0  0  0  0  0  0  0  0  0  0
    2.7563   -2.0735   -0.3924 H   0  0  0  0  0  0  0  0  0  0  0  0
    0.2590   -2.0544   -0.3748 H   0  0  0  0  0  0  0  0  0  0  0  0
   -1.6384    1.8966   -1.1006 H   0  0  0  0  0  0  0  0  0  0  0  0
   -4.1101    1.8256   -1.0772 H   0  0  0  0  0  0  0  0  0  0  0  0
   -5.3011   -0.0551   -0.1615 H   0  0  0  0  0  0  0  0  0  0  0  0
   -4.0177   -1.9423    0.7676 H   0  0  0  0  0  0  0  0  0  0  0  0
   -1.5017   -1.8936    0.7552 H   0  0  0  0  0  0  0  0  0  0  0  0
    0.2872    2.1495    0.0093 H   0  0  0  0  0  0  0  0  0  0  0  0
    2.7108    2.1762   -0.0046 H   0  0  0  0  0  0  0  0  0  0  0  0
  1  2  1  0
  2  3  2  0
  3  4  1  0
  4  5  2  0
  5  6  1  0
  6  7  2  0
  7  8  1  0
  8  9  2  0
  9 10  1  0
 10 11  2  0
  5 12  1  0
 12 13  2  0
 13  2  1  0
 11  6  1  0
  1 14  1  0
  1 15  1  0
  1 16  1  0
  3 17  1  0
  4 18  1  0
  7 19  1  0
  8 20  1  0
  9 21  1  0
 10 22  1  0
 11 23  1  0
 12 24  1  0
 13 25  1  0
M  END
