
     RDKit          3D

 79 83  0  0  0  0  0  0  0  0999 V2000
  -12.4763    0.0791   -0.3660 C   0  0  0  0  0  0  0  0  0  0  0  0
  -11.6678    1.2313    0.2235 C   0  0  0  0  0  0  0  0  0  0  0  0
  -10.4277    1.2882   -0.6236 N   0  0  0  0  0  0  0  0  0  0  0  0
  -10.7067    1.7275   -1.9387 C   0  0  0  0  0  0  0  0  0  0  0  0
   -9.6656    1.9438   -2.9457 C   0  0  0  0  0  0  0  0  0  0  0  0
   -9.1915    0.9218   -0.0289 C   0  0  0  0  0  0  0  0  0  0  0  0
   -9.0696    0.8548    1.3647 C   0  0  0  0  0  0  0  0  0  0  0  0
   -7.8985    0.4506    1.9746 C   0  0  0  0  0  0  0  0  0  0  0  0
   -6.7858    0.0934    1.2539 C   0  0  0  0  0  0  0  0  0  0  0  0
   -5.6399   -0.2963    1.8808 C   0  0  0  0  0  0  0  0  0  0  0  0
   -4.5306   -0.6435    1.0861 C   0  0  0  0  0  0  0  0  0  0  0  0
   -3.3162   -1.0669    1.7278 C   0  0  0  0  0  0  0  0  0  0  0  0
   -2.1755   -1.3820    1.1885 C   0  0  0  0  0  0  0  0  0  0  0  0
   -1.0199   -1.7985    2.0015 C   0  0  0  0  0  0  0  0  0  0  0  0
   -1.2005   -1.8569    3.3959 O   0  0  0  0  0  0  0  0  0  0  0  0
    0.1092   -2.0958    1.4370 C   0  0  0  0  0  0  0  0  0  0  0  0
    0.5118   -2.1033    0.0378 C   0  0  0  0  0  0  0  0  0  0  0  0
    2.0344   -2.1866    0.0059 C   0  0  0  0  0  0  0  0  0  0  0  0
    2.4639   -2.1189    1.3998 C   0  0  0  0  0  0  0  0  0  0  0  0
    3.6359   -1.7694    1.8623 C   0  0  0  0  0  0  0  0  0  0  0  0
    4.8022   -1.3645    1.1542 C   0  0  0  0  0  0  0  0  0  0  0  0
    5.4370   -0.2070    1.5964 C   0  0  0  0  0  0  0  0  0  0  0  0
    6.6170    0.2218    1.0144 C   0  0  0  0  0  0  0  0  0  0  0  0
    7.2592    1.3658    1.4505 C   0  0  0  0  0  0  0  0  0  0  0  0
    8.4202    1.7206    0.8340 C   0  0  0  0  0  0  0  0  0  0  0  0
    8.9627    0.9637   -0.2103 C   0  0  0  0  0  0  0  0  0  0  0  0
   10.2047    1.3288   -0.8003 N   0  0  0  0  0  0  0  0  0  0  0  0
   10.3198    2.5679   -1.5135 C   0  0  0  0  0  0  0  0  0  0  0  0
   10.5140    2.3447   -3.0086 C   0  0  0  0  0  0  0  0  0  0  0  0
   11.3676    0.4745   -0.7024 C   0  0  0  0  0  0  0  0  0  0  0  0
   11.0454   -0.8010    0.0523 C   0  0  0  0  0  0  0  0  0  0  0  0
    8.3010   -0.1630   -0.6190 C   0  0  0  0  0  0  0  0  0  0  0  0
    7.1302   -0.5337   -0.0073 C   0  0  0  0  0  0  0  0  0  0  0  0
    6.4998   -1.6205   -0.4005 O   0  0  0  0  0  0  0  0  0  0  0  0
    5.3814   -2.0510    0.1323 C   0  0  0  0  0  0  0  0  0  0  0  0
    4.8817   -3.1161   -0.3396 O   0  0  0  0  0  0  0  0  0  0  0  0
    1.2953   -2.5093    2.2071 C   0  0  0  0  0  0  0  0  0  0  0  0
    1.3241   -3.0773    3.3204 O   0  0  0  0  0  0  0  0  0  0  0  0
   -4.7335   -0.5500   -0.2611 C   0  0  0  0  0  0  0  0  0  0  0  0
   -3.7742   -0.8505   -1.0652 O   0  0  0  0  0  0  0  0  0  0  0  0
   -5.8688   -0.1650   -0.8334 O   0  0  0  0  0  0  0  0  0  0  0  0
   -6.9125    0.1638   -0.1169 C   0  0  0  0  0  0  0  0  0  0  0  0
   -8.0930    0.5687   -0.7442 C   0  0  0  0  0  0  0  0  0  0  0  0
  -13.1231    0.4850   -1.1465 H   0  0  0  0  0  0  0  0  0  0  0  0
  -13.0710   -0.3461    0.4823 H   0  0  0  0  0  0  0  0  0  0  0  0
  -11.7647   -0.6741   -0.7535 H   0  0  0  0  0  0  0  0  0  0  0  0
  -11.4995    1.1874    1.2644 H   0  0  0  0  0  0  0  0  0  0  0  0
  -12.2302    2.1957   -0.0033 H   0  0  0  0  0  0  0  0  0  0  0  0
  -11.4718    1.0153   -2.4185 H   0  0  0  0  0  0  0  0  0  0  0  0
  -11.2625    2.7263   -1.8328 H   0  0  0  0  0  0  0  0  0  0  0  0
   -8.7914    2.5490   -2.6586 H   0  0  0  0  0  0  0  0  0  0  0  0
   -9.4097    1.0493   -3.5870 H   0  0  0  0  0  0  0  0  0  0  0  0
  -10.1578    2.6175   -3.7547 H   0  0  0  0  0  0  0  0  0  0  0  0
   -9.8905    1.1353    2.0102 H   0  0  0  0  0  0  0  0  0  0  0  0
   -7.8435    0.4122    3.0706 H   0  0  0  0  0  0  0  0  0  0  0  0
   -5.5319   -0.3585    2.9529 H   0  0  0  0  0  0  0  0  0  0  0  0
   -3.3387   -1.1415    2.8307 H   0  0  0  0  0  0  0  0  0  0  0  0
   -2.0458   -1.3434    0.1312 H   0  0  0  0  0  0  0  0  0  0  0  0
   -1.3482   -2.7759    3.8423 H   0  0  0  0  0  0  0  0  0  0  0  0
    0.1914   -1.2251   -0.5364 H   0  0  0  0  0  0  0  0  0  0  0  0
    0.0786   -3.0309   -0.4348 H   0  0  0  0  0  0  0  0  0  0  0  0
    2.4402   -1.3302   -0.5690 H   0  0  0  0  0  0  0  0  0  0  0  0
    2.2604   -3.1278   -0.5240 H   0  0  0  0  0  0  0  0  0  0  0  0
    3.7322   -1.8022    2.9705 H   0  0  0  0  0  0  0  0  0  0  0  0
    5.0493    0.4083    2.4054 H   0  0  0  0  0  0  0  0  0  0  0  0
    6.7977    1.9219    2.2650 H   0  0  0  0  0  0  0  0  0  0  0  0
    8.9502    2.6180    1.1506 H   0  0  0  0  0  0  0  0  0  0  0  0
    9.4906    3.2807   -1.3486 H   0  0  0  0  0  0  0  0  0  0  0  0
   11.2752    3.0422   -1.1547 H   0  0  0  0  0  0  0  0  0  0  0  0
   10.1798    3.2584   -3.5185 H   0  0  0  0  0  0  0  0  0  0  0  0
   11.5695    2.2000   -3.2165 H   0  0  0  0  0  0  0  0  0  0  0  0
    9.8511    1.5312   -3.3710 H   0  0  0  0  0  0  0  0  0  0  0  0
   12.2103    0.9828   -0.2428 H   0  0  0  0  0  0  0  0  0  0  0  0
   11.6410    0.1550   -1.7363 H   0  0  0  0  0  0  0  0  0  0  0  0
   10.2712   -0.6537    0.8101 H   0  0  0  0  0  0  0  0  0  0  0  0
   10.8088   -1.6320   -0.6524 H   0  0  0  0  0  0  0  0  0  0  0  0
   11.9815   -1.1026    0.5846 H   0  0  0  0  0  0  0  0  0  0  0  0
    8.7122   -0.7685   -1.4321 H   0  0  0  0  0  0  0  0  0  0  0  0
   -8.0754    0.5572   -1.8389 H   0  0  0  0  0  0  0  0  0  0  0  0
  1  2  1  0
  2  3  1  0
  3  4  1  0
  4  5  1  0
  3  6  1  0
  6  7  2  0
  7  8  1  0
  8  9  2  0
  9 10  1  0
 10 11  2  0
 11 12  1  0
 12 13  2  0
 13 14  1  0
 14 15  1  0
 14 16  2  0
 16 17  1  0
 17 18  1  0
 18 19  1  0
 19 20  2  0
 20 21  1  0
 21 22  2  0
 22 23  1  0
 23 24  2  0
 24 25  1  0
 25 26  2  0
 26 27  1  0
 27 28  1  0
 28 29  1  0
 27 30  1  0
 30 31  1  0
 26 32  1  0
 32 33  2  0
 33 34  1  0
 34 35  1  0
 35 36  2  0
 19 37  1  0
 37 38  2  0
 11 39  1  0
 39 40  2  0
 39 41  1  0
 41 42  1  0
 42 43  2  0
 43  6  1  0
 42  9  1  0
 37 16  1  0
 35 21  1  0
 33 23  1  0
  1 44  1  0
  1 45  1  0
  1 46  1  0
  2 47  1  0
  2 48  1  0
  4 49  1  0
  4 50  1  0
  5 51  1  0
  5 52  1  0
  5 53  1  0
  7 54  1  0
  8 55  1  0
 10 56  1  0
 12 57  1  0
 13 58  1  0
 15 59  1  0
 17 60  1  0
 17 61  1  0
 18 62  1  0
 18 63  1  0
 20 64  1  0
 22 65  1  0
 24 66  1  0
 25 67  1  0
 28 68  1  0
 28 69  1  0
 29 70  1  0
 29 71  1  0
 29 72  1  0
 30 73  1  0
 30 74  1  0
 31 75  1  0
 31 76  1  0
 31 77  1  0
 32 78  1  0
 43 79  1  0
M  END
