
     RDKit          3D

 39 41  0  0  0  0  0  0  0  0999 V2000
    5.9822   -0.0914    2.0978 C   0  0  0  0  0  0  0  0  0  0  0  0
    5.5883   -0.2846    0.7563 O   0  0  0  0  0  0  0  0  0  0  0  0
    4.2240   -0.1714    0.4622 C   0  0  0  0  0  0  0  0  0  0  0  0
    3.3103    0.1202    1.4619 C   0  0  0  0  0  0  0  0  0  0  0  0
    1.9732    0.2297    1.1662 C   0  0  0  0  0  0  0  0  0  0  0  0
    1.4659    0.0624   -0.1050 C   0  0  0  0  0  0  0  0  0  0  0  0
    0.0777    0.1770   -0.4060 N   0  0  0  0  0  0  0  0  0  0  0  0
   -0.4430    0.3452   -1.6094 N   0  0  0  0  0  0  0  0  0  0  0  0
   -1.7846    0.4169   -1.5612 C   0  0  0  0  0  0  0  0  0  0  0  0
   -2.7032    0.5969   -2.6687 C   0  0  0  0  0  0  0  0  0  0  0  0
   -3.4551    0.7507   -3.5467 N   0  0  0  0  0  0  0  0  0  0  0  0
   -2.1028    0.2814   -0.2223 C   0  0  0  0  0  0  0  0  0  0  0  0
   -3.4000    0.2912    0.3393 N   0  0  0  0  0  0  0  0  0  0  0  0
   -4.3607    1.3678    0.2671 C   0  0  0  0  0  0  0  0  0  0  0  0
   -5.7216    0.6636    0.2814 C   0  0  0  0  0  0  0  0  0  0  0  0
   -5.4233   -0.7872    0.5399 C   0  0  0  0  0  0  0  0  0  0  0  0
   -4.0231   -0.7681    1.0939 C   0  0  0  0  0  0  0  0  0  0  0  0
   -0.9272    0.1401    0.4196 N   0  0  0  0  0  0  0  0  0  0  0  0
    2.4098   -0.2297   -1.0876 C   0  0  0  0  0  0  0  0  0  0  0  0
    3.7441   -0.3430   -0.8142 C   0  0  0  0  0  0  0  0  0  0  0  0
    4.6439   -0.6320   -1.8097 O   0  0  0  0  0  0  0  0  0  0  0  0
    4.1628   -0.8106   -3.1254 C   0  0  0  0  0  0  0  0  0  0  0  0
    5.4541   -0.8415    2.7188 H   0  0  0  0  0  0  0  0  0  0  0  0
    5.6313    0.9121    2.3997 H   0  0  0  0  0  0  0  0  0  0  0  0
    7.0853   -0.2103    2.1521 H   0  0  0  0  0  0  0  0  0  0  0  0
    3.6921    0.2580    2.4850 H   0  0  0  0  0  0  0  0  0  0  0  0
    1.2706    0.4574    1.9542 H   0  0  0  0  0  0  0  0  0  0  0  0
   -4.3179    1.9512   -0.6511 H   0  0  0  0  0  0  0  0  0  0  0  0
   -4.2302    1.9754    1.1983 H   0  0  0  0  0  0  0  0  0  0  0  0
   -6.2712    0.8276   -0.6699 H   0  0  0  0  0  0  0  0  0  0  0  0
   -6.3032    1.0747    1.1232 H   0  0  0  0  0  0  0  0  0  0  0  0
   -6.1454   -1.2617    1.2314 H   0  0  0  0  0  0  0  0  0  0  0  0
   -5.4335   -1.3054   -0.4622 H   0  0  0  0  0  0  0  0  0  0  0  0
   -4.1050   -0.5182    2.1746 H   0  0  0  0  0  0  0  0  0  0  0  0
   -3.5073   -1.7441    0.9733 H   0  0  0  0  0  0  0  0  0  0  0  0
    1.9959   -0.3608   -2.0952 H   0  0  0  0  0  0  0  0  0  0  0  0
    3.5422    0.0875   -3.3621 H   0  0  0  0  0  0  0  0  0  0  0  0
    4.9600   -0.9549   -3.8618 H   0  0  0  0  0  0  0  0  0  0  0  0
    3.4446   -1.6722   -3.0746 H   0  0  0  0  0  0  0  0  0  0  0  0
  1  2  1  0
  2  3  1  0
  3  4  2  0
  4  5  1  0
  5  6  2  0
  6  7  1  0
  7  8  1  0
  8  9  2  0
  9 10  1  0
 10 11  3  0
  9 12  1  0
 12 13  1  0
 13 14  1  0
 14 15  1  0
 15 16  1  0
 16 17  1  0
 12 18  2  0
  6 19  1  0
 19 20  2  0
 20 21  1  0
 21 22  1  0
 20  3  1  0
 18  7  1  0
 17 13  1  0
  1 23  1  0
  1 24  1  0
  1 25  1  0
  4 26  1  0
  5 27  1  0
 14 28  1  0
 14 29  1  0
 15 30  1  0
 15 31  1  0
 16 32  1  0
 16 33  1  0
 17 34  1  0
 17 35  1  0
 19 36  1  0
 22 37  1  0
 22 38  1  0
 22 39  1  0
M  END
