
     RDKit          3D

 52 55  0  0  0  0  0  0  0  0999 V2000
   13.6516   -0.4872    0.8480 N   0  0  0  0  0  0  0  0  0  0  0  0
   12.4801   -0.1846    0.7615 C   0  0  0  0  0  0  0  0  0  0  0  0
   11.1319    0.1612    0.6426 C   0  0  0  0  0  0  0  0  0  0  0  0
   10.2600   -0.4044    1.7375 C   0  0  0  0  0  0  0  0  0  0  0  0
    8.9685   -0.2391    1.6097 C   0  0  0  0  0  0  0  0  0  0  0  0
    8.2773    0.4375    0.5065 C   0  0  0  0  0  0  0  0  0  0  0  0
    6.8745    0.2543    0.5216 C   0  0  0  0  0  0  0  0  0  0  0  0
    5.7403    0.1245    0.5418 C   0  0  0  0  0  0  0  0  0  0  0  0
    4.2668   -0.0179    0.5640 C   0  0  0  0  0  0  0  0  0  0  0  0
    3.9411   -1.4010    0.4632 C   0  0  0  0  0  0  0  0  0  0  0  0
    2.6335   -1.7951    0.2760 C   0  0  0  0  0  0  0  0  0  0  0  0
    1.6845   -0.8273    0.1959 C   0  0  0  0  0  0  0  0  0  0  0  0
    0.3539   -0.9737   -0.1504 C   0  0  0  0  0  0  0  0  0  0  0  0
   -0.7011   -1.0820   -0.4067 C   0  0  0  0  0  0  0  0  0  0  0  0
   -2.1887   -1.2211   -0.7458 C   0  0  0  0  0  0  0  0  0  0  0  0
   -2.9716   -1.6501    0.3104 C   0  0  0  0  0  0  0  0  0  0  0  0
   -4.3239   -1.3696    0.1637 C   0  0  0  0  0  0  0  0  0  0  0  0
   -4.8522   -0.7305   -0.9639 C   0  0  0  0  0  0  0  0  0  0  0  0
   -6.2347   -0.3399   -0.7628 C   0  0  0  0  0  0  0  0  0  0  0  0
   -7.3487   -0.0296   -0.5826 C   0  0  0  0  0  0  0  0  0  0  0  0
   -8.6698    0.3155   -0.3645 C   0  0  0  0  0  0  0  0  0  0  0  0
   -9.2816   -0.3256    0.7804 C   0  0  0  0  0  0  0  0  0  0  0  0
  -10.5479   -0.0391    1.2392 C   0  0  0  0  0  0  0  0  0  0  0  0
  -11.2495    0.9026    0.5531 C   0  0  0  0  0  0  0  0  0  0  0  0
  -10.7024    1.5422   -0.5609 C   0  0  0  0  0  0  0  0  0  0  0  0
   -9.4169    1.2426   -0.9934 C   0  0  0  0  0  0  0  0  0  0  0  0
   -8.8757    1.9393   -2.0604 C   0  0  0  0  0  0  0  0  0  0  0  0
   -8.3540    2.6013   -3.0546 N   0  0  0  0  0  0  0  0  0  0  0  0
   -4.0481   -0.3806   -1.9535 C   0  0  0  0  0  0  0  0  0  0  0  0
   -2.6685   -0.6105   -1.8699 C   0  0  0  0  0  0  0  0  0  0  0  0
   -1.8136   -0.2045   -2.9776 C   0  0  0  0  0  0  0  0  0  0  0  0
   -1.1114    0.1152   -3.8607 N   0  0  0  0  0  0  0  0  0  0  0  0
    2.0709    0.5885    0.3260 C   0  0  0  0  0  0  0  0  0  0  0  0
    3.3911    0.9510    0.5105 C   0  0  0  0  0  0  0  0  0  0  0  0
    3.7777    2.2855    0.5754 C   0  0  0  0  0  0  0  0  0  0  0  0
    4.1266    3.4444    0.6399 N   0  0  0  0  0  0  0  0  0  0  0  0
    9.1148    0.9203   -0.4108 C   0  0  0  0  0  0  0  0  0  0  0  0
   10.4645    0.7731   -0.3259 C   0  0  0  0  0  0  0  0  0  0  0  0
   10.7801   -0.8681    2.5274 H   0  0  0  0  0  0  0  0  0  0  0  0
    8.2940   -0.5910    2.4112 H   0  0  0  0  0  0  0  0  0  0  0  0
    4.6322   -2.1988    0.5553 H   0  0  0  0  0  0  0  0  0  0  0  0
    2.3221   -2.8244    0.2217 H   0  0  0  0  0  0  0  0  0  0  0  0
   -2.5089   -2.1575    1.1020 H   0  0  0  0  0  0  0  0  0  0  0  0
   -4.9414   -1.6459    0.9870 H   0  0  0  0  0  0  0  0  0  0  0  0
   -8.6928   -1.1044    1.2820 H   0  0  0  0  0  0  0  0  0  0  0  0
  -10.8608   -0.5489    2.1268 H   0  0  0  0  0  0  0  0  0  0  0  0
  -12.2112    1.1657    0.9421 H   0  0  0  0  0  0  0  0  0  0  0  0
  -11.3033    2.2375   -1.0932 H   0  0  0  0  0  0  0  0  0  0  0  0
   -4.4338    0.1266   -2.8268 H   0  0  0  0  0  0  0  0  0  0  0  0
    1.3390    1.3360    0.3092 H   0  0  0  0  0  0  0  0  0  0  0  0
    8.6506    1.5084   -1.2308 H   0  0  0  0  0  0  0  0  0  0  0  0
   11.0851    1.2795   -1.0858 H   0  0  0  0  0  0  0  0  0  0  0  0
  1  2  3  0
  2  3  1  0
  3  4  2  0
  4  5  1  0
  5  6  2  0
  6  7  1  0
  7  8  3  0
  8  9  1  0
  9 10  2  0
 10 11  1  0
 11 12  2  0
 12 13  1  0
 13 14  3  0
 14 15  1  0
 15 16  2  0
 16 17  1  0
 17 18  2  0
 18 19  1  0
 19 20  3  0
 20 21  1  0
 21 22  2  0
 22 23  1  0
 23 24  2  0
 24 25  1  0
 25 26  2  0
 26 27  1  0
 27 28  3  0
 18 29  1  0
 29 30  2  0
 30 31  1  0
 31 32  3  0
 12 33  1  0
 33 34  2  0
 34 35  1  0
 35 36  3  0
  6 37  1  0
 37 38  2  0
 38  3  1  0
 34  9  1  0
 30 15  1  0
 26 21  1  0
  4 39  1  0
  5 40  1  0
 10 41  1  0
 11 42  1  0
 16 43  1  0
 17 44  1  0
 22 45  1  0
 23 46  1  0
 24 47  1  0
 25 48  1  0
 29 49  1  0
 33 50  1  0
 37 51  1  0
 38 52  1  0
M  END
