
     RDKit          3D

 26 28  0  0  0  0  0  0  0  0999 V2000
    0.6630    2.5316   -0.9797 O   0  0  0  0  0  0  0  0  0  0  0  0
    0.5162    1.3946   -0.4385 C   0  0  0  0  0  0  0  0  0  0  0  0
    1.6707    0.6195   -0.0535 C   0  0  0  0  0  0  0  0  0  0  0  0
    2.9474    1.1024   -0.2679 C   0  0  0  0  0  0  0  0  0  0  0  0
    4.0487    0.3654    0.0983 C   0  0  0  0  0  0  0  0  0  0  0  0
    3.8606   -0.8638    0.6830 C   0  0  0  0  0  0  0  0  0  0  0  0
    2.5808   -1.3472    0.8975 C   0  0  0  0  0  0  0  0  0  0  0  0
    1.4893   -0.6003    0.5268 C   0  0  0  0  0  0  0  0  0  0  0  0
    0.1396   -1.1539    0.7739 C   0  0  0  0  0  0  0  0  0  0  0  0
    0.0189   -2.2704    1.3056 O   0  0  0  0  0  0  0  0  0  0  0  0
   -1.0408   -0.3952    0.3965 C   0  0  0  0  0  0  0  0  0  0  0  0
   -0.8206    0.8577   -0.1991 C   0  0  0  0  0  0  0  0  0  0  0  0
   -1.8942    1.6330   -0.5832 C   0  0  0  0  0  0  0  0  0  0  0  0
   -3.1696    1.1533   -0.3704 C   0  0  0  0  0  0  0  0  0  0  0  0
   -3.3971   -0.0744    0.2131 C   0  0  0  0  0  0  0  0  0  0  0  0
   -4.6798   -0.5313    0.4149 O   0  0  0  0  0  0  0  0  0  0  0  0
   -2.3152   -0.8664    0.6052 C   0  0  0  0  0  0  0  0  0  0  0  0
   -2.5680   -2.0647    1.1743 O   0  0  0  0  0  0  0  0  0  0  0  0
    3.0517    2.0751   -0.7311 H   0  0  0  0  0  0  0  0  0  0  0  0
    5.0604    0.7131   -0.0548 H   0  0  0  0  0  0  0  0  0  0  0  0
    4.6741   -1.5074    1.0008 H   0  0  0  0  0  0  0  0  0  0  0  0
    2.4341   -2.3235    1.3619 H   0  0  0  0  0  0  0  0  0  0  0  0
   -1.7114    2.5933   -1.0395 H   0  0  0  0  0  0  0  0  0  0  0  0
   -4.0010    1.7646   -0.6730 H   0  0  0  0  0  0  0  0  0  0  0  0
   -5.4883    0.0064    0.1478 H   0  0  0  0  0  0  0  0  0  0  0  0
   -2.0697   -2.8112    1.5373 H   0  0  0  0  0  0  0  0  0  0  0  0
  1  2  2  0
  2  3  1  0
  3  4  2  0
  4  5  1  0
  5  6  2  0
  6  7  1  0
  7  8  2  0
  8  9  1  0
  9 10  2  0
  9 11  1  0
 11 12  2  0
 12 13  1  0
 13 14  2  0
 14 15  1  0
 15 16  1  0
 15 17  2  0
 17 18  1  0
 12  2  1  0
  8  3  1  0
 17 11  1  0
  4 19  1  0
  5 20  1  0
  6 21  1  0
  7 22  1  0
 13 23  1  0
 14 24  1  0
 16 25  1  0
 18 26  1  0
M  END
