
     RDKit          3D

 16 16  0  0  0  0  0  0  0  0999 V2000
    2.8291    0.2788    0.0417 N   0  0  0  0  0  0  0  0  0  0  0  0
    1.4129    0.1445    0.0220 C   0  0  0  0  0  0  0  0  0  0  0  0
    0.5757    1.2419    0.0390 C   0  0  0  0  0  0  0  0  0  0  0  0
   -0.7971    1.1018    0.0196 C   0  0  0  0  0  0  0  0  0  0  0  0
   -1.4013   -0.1377   -0.0177 C   0  0  0  0  0  0  0  0  0  0  0  0
   -2.8170   -0.2812   -0.0377 N   0  0  0  0  0  0  0  0  0  0  0  0
   -0.5709   -1.2388   -0.0349 C   0  0  0  0  0  0  0  0  0  0  0  0
    0.8013   -1.0923   -0.0153 C   0  0  0  0  0  0  0  0  0  0  0  0
    3.4231   -0.4961   -0.2961 H   0  0  0  0  0  0  0  0  0  0  0  0
    3.2922    1.1376    0.3875 H   0  0  0  0  0  0  0  0  0  0  0  0
    1.0114    2.2387    0.0684 H   0  0  0  0  0  0  0  0  0  0  0  0
   -1.4724    1.9576    0.0326 H   0  0  0  0  0  0  0  0  0  0  0  0
   -3.3252   -1.0489    0.4488 H   0  0  0  0  0  0  0  0  0  0  0  0
   -3.3795    0.4132   -0.5638 H   0  0  0  0  0  0  0  0  0  0  0  0
   -1.0269   -2.2396   -0.0646 H   0  0  0  0  0  0  0  0  0  0  0  0
    1.4445   -1.9794   -0.0295 H   0  0  0  0  0  0  0  0  0  0  0  0
  1  2  1  0
  2  3  2  0
  3  4  1  0
  4  5  2  0
  5  6  1  0
  5  7  1  0
  7  8  2  0
  8  2  1  0
  1  9  1  0
  1 10  1  0
  3 11  1  0
  4 12  1  0
  6 13  1  0
  6 14  1  0
  7 15  1  0
  8 16  1  0
M  END
