
     RDKit          3D

 31 33  0  0  0  0  0  0  0  0999 V2000
   -0.9004    1.0441    1.5956 C   0  0  0  0  0  0  0  0  0  0  0  0
   -0.3296    0.2644    0.4792 C   0  0  0  0  0  0  0  0  0  0  0  0
   -1.1273   -0.3780   -0.3396 C   0  0  0  0  0  0  0  0  0  0  0  0
   -2.5724   -0.4381   -0.2953 C   0  0  0  0  0  0  0  0  0  0  0  0
   -3.3029   -0.1212   -1.4437 C   0  0  0  0  0  0  0  0  0  0  0  0
   -4.6761   -0.2012   -1.5228 C   0  0  0  0  0  0  0  0  0  0  0  0
   -5.3749   -0.6148   -0.4130 C   0  0  0  0  0  0  0  0  0  0  0  0
   -7.1143   -0.7415   -0.4667 Cl  0  0  0  0  0  0  0  0  0  0  0  0
   -4.6818   -0.9336    0.7372 C   0  0  0  0  0  0  0  0  0  0  0  0
   -3.3066   -0.8479    0.7984 C   0  0  0  0  0  0  0  0  0  0  0  0
    1.1280    0.2043    0.3175 C   0  0  0  0  0  0  0  0  0  0  0  0
    1.9899    0.8377    1.1355 N   0  0  0  0  0  0  0  0  0  0  0  0
    3.2516    0.5973    0.7415 C   0  0  0  0  0  0  0  0  0  0  0  0
    4.5069    0.9594    1.1710 C   0  0  0  0  0  0  0  0  0  0  0  0
    5.6778    0.5606    0.5678 C   0  0  0  0  0  0  0  0  0  0  0  0
    5.5297   -0.2678   -0.5541 C   0  0  0  0  0  0  0  0  0  0  0  0
    4.2716   -0.6396   -0.9973 C   0  0  0  0  0  0  0  0  0  0  0  0
    3.1282   -0.2278   -0.3770 C   0  0  0  0  0  0  0  0  0  0  0  0
    1.8425   -0.4261   -0.5808 O   0  0  0  0  0  0  0  0  0  0  0  0
   -0.1109    1.6606    2.0979 H   0  0  0  0  0  0  0  0  0  0  0  0
   -1.6628    1.7473    1.1336 H   0  0  0  0  0  0  0  0  0  0  0  0
   -1.3572    0.4384    2.3895 H   0  0  0  0  0  0  0  0  0  0  0  0
   -0.6303   -0.9247   -1.1472 H   0  0  0  0  0  0  0  0  0  0  0  0
   -2.7359    0.2049   -2.3073 H   0  0  0  0  0  0  0  0  0  0  0  0
   -5.2401    0.0493   -2.4285 H   0  0  0  0  0  0  0  0  0  0  0  0
   -5.2506   -1.2623    1.6119 H   0  0  0  0  0  0  0  0  0  0  0  0
   -2.8201   -1.1248    1.7010 H   0  0  0  0  0  0  0  0  0  0  0  0
    4.5869    1.5971    2.0376 H   0  0  0  0  0  0  0  0  0  0  0  0
    6.6547    0.8609    0.9285 H   0  0  0  0  0  0  0  0  0  0  0  0
    6.4395   -0.5952   -1.0428 H   0  0  0  0  0  0  0  0  0  0  0  0
    4.1869   -1.2817   -1.8727 H   0  0  0  0  0  0  0  0  0  0  0  0
  1  2  1  0
  2  3  2  0
  3  4  1  0
  4  5  2  0
  5  6  1  0
  6  7  2  0
  7  8  1  0
  7  9  1  0
  9 10  2  0
  2 11  1  0
 11 12  2  0
 12 13  1  0
 13 14  2  0
 14 15  1  0
 15 16  2  0
 16 17  1  0
 17 18  2  0
 18 19  1  0
 10  4  1  0
 19 11  1  0
 18 13  1  0
  1 20  1  0
  1 21  1  0
  1 22  1  0
  3 23  1  0
  5 24  1  0
  6 25  1  0
  9 26  1  0
 10 27  1  0
 14 28  1  0
 15 29  1  0
 16 30  1  0
 17 31  1  0
M  END
