
     RDKit          3D

 14 14  0  0  0  0  0  0  0  0999 V2000
    2.3026   -0.0052   -0.2355 N   0  0  0  0  0  0  0  0  0  0  0  0
    0.8992   -0.0206   -0.0993 C   0  0  0  0  0  0  0  0  0  0  0  0
    0.2737    1.0288    0.5308 C   0  0  0  0  0  0  0  0  0  0  0  0
   -1.1131    1.0597    0.6902 C   0  0  0  0  0  0  0  0  0  0  0  0
   -1.8718    0.0151    0.2052 C   0  0  0  0  0  0  0  0  0  0  0  0
   -1.2626   -1.0500   -0.4316 C   0  0  0  0  0  0  0  0  0  0  0  0
    0.1209   -1.0479   -0.5729 C   0  0  0  0  0  0  0  0  0  0  0  0
    2.6892    0.1594   -1.2127 H   0  0  0  0  0  0  0  0  0  0  0  0
    2.9251   -0.1491    0.5875 H   0  0  0  0  0  0  0  0  0  0  0  0
    0.8485    1.8594    0.9194 H   0  0  0  0  0  0  0  0  0  0  0  0
   -1.6076    1.8954    1.1916 H   0  0  0  0  0  0  0  0  0  0  0  0
   -2.9558    0.0124    0.3154 H   0  0  0  0  0  0  0  0  0  0  0  0
   -1.8545   -1.8733   -0.8145 H   0  0  0  0  0  0  0  0  0  0  0  0
    0.6063   -1.8840   -1.0736 H   0  0  0  0  0  0  0  0  0  0  0  0
  1  2  1  0
  2  3  2  0
  3  4  1  0
  4  5  2  0
  5  6  1  0
  6  7  2  0
  7  2  1  0
  1  8  1  0
  1  9  1  0
  3 10  1  0
  4 11  1  0
  5 12  1  0
  6 13  1  0
  7 14  1  0
M  END
