
     RDKit          3D

 44 47  0  0  0  0  0  0  0  0999 V2000
   -6.0202    0.2322    1.2852 C   0  0  0  0  0  0  0  0  0  0  0  0
   -5.0360   -0.6228    0.5007 C   0  0  0  0  0  0  0  0  0  0  0  0
   -4.3048    0.1412   -0.4593 N   0  0  0  0  0  0  0  0  0  0  0  0
   -4.9773    0.7222   -1.6025 C   0  0  0  0  0  0  0  0  0  0  0  0
   -5.4730   -0.3576   -2.5492 C   0  0  0  0  0  0  0  0  0  0  0  0
   -2.9044    0.3125   -0.3179 C   0  0  0  0  0  0  0  0  0  0  0  0
   -2.2568    1.5021   -0.5825 C   0  0  0  0  0  0  0  0  0  0  0  0
   -0.8920    1.6621   -0.4814 C   0  0  0  0  0  0  0  0  0  0  0  0
   -0.0781    0.6030   -0.0987 C   0  0  0  0  0  0  0  0  0  0  0  0
    1.2885    0.7249    0.0077 C   0  0  0  0  0  0  0  0  0  0  0  0
    2.0292   -0.3704    0.3868 C   0  0  0  0  0  0  0  0  0  0  0  0
    3.4957   -0.2874    0.5021 C   0  0  0  0  0  0  0  0  0  0  0  0
    4.2123    0.8358    0.2872 N   0  0  0  0  0  0  0  0  0  0  0  0
    5.5312    0.6062    0.4612 C   0  0  0  0  0  0  0  0  0  0  0  0
    6.6612    1.4193    0.3554 C   0  0  0  0  0  0  0  0  0  0  0  0
    7.8827    0.8289    0.6036 C   0  0  0  0  0  0  0  0  0  0  0  0
    7.9567   -0.4924    0.9361 C   0  0  0  0  0  0  0  0  0  0  0  0
    6.8784   -1.3286    1.0513 C   0  0  0  0  0  0  0  0  0  0  0  0
    5.6423   -0.7144    0.7979 C   0  0  0  0  0  0  0  0  0  0  0  0
    4.3828   -1.2243    0.8127 N   0  0  0  0  0  0  0  0  0  0  0  0
    1.3530   -1.5239    0.6386 C   0  0  0  0  0  0  0  0  0  0  0  0
    1.9140   -2.5853    0.9916 O   0  0  0  0  0  0  0  0  0  0  0  0
    0.0299   -1.6165    0.5289 O   0  0  0  0  0  0  0  0  0  0  0  0
   -0.7162   -0.5883    0.1670 C   0  0  0  0  0  0  0  0  0  0  0  0
   -2.0939   -0.7468    0.0658 C   0  0  0  0  0  0  0  0  0  0  0  0
   -6.8841   -0.4171    1.5042 H   0  0  0  0  0  0  0  0  0  0  0  0
   -6.3790    1.0966    0.6871 H   0  0  0  0  0  0  0  0  0  0  0  0
   -5.5876    0.6095    2.2253 H   0  0  0  0  0  0  0  0  0  0  0  0
   -5.5398   -1.4944    0.0433 H   0  0  0  0  0  0  0  0  0  0  0  0
   -4.3400   -1.0677    1.2648 H   0  0  0  0  0  0  0  0  0  0  0  0
   -4.2387    1.3102   -2.1941 H   0  0  0  0  0  0  0  0  0  0  0  0
   -5.8292    1.3685   -1.3508 H   0  0  0  0  0  0  0  0  0  0  0  0
   -5.5912   -1.2871   -1.9746 H   0  0  0  0  0  0  0  0  0  0  0  0
   -4.8352   -0.4804   -3.4452 H   0  0  0  0  0  0  0  0  0  0  0  0
   -6.4980   -0.1144   -2.9224 H   0  0  0  0  0  0  0  0  0  0  0  0
   -2.8764    2.3404   -0.8796 H   0  0  0  0  0  0  0  0  0  0  0  0
   -0.3858    2.6110   -0.6877 H   0  0  0  0  0  0  0  0  0  0  0  0
    1.7596    1.6858   -0.2113 H   0  0  0  0  0  0  0  0  0  0  0  0
    6.5420    2.4605    0.0858 H   0  0  0  0  0  0  0  0  0  0  0  0
    8.7794    1.4620    0.5229 H   0  0  0  0  0  0  0  0  0  0  0  0
    8.9369   -0.9269    1.1220 H   0  0  0  0  0  0  0  0  0  0  0  0
    6.8703   -2.3538    1.3082 H   0  0  0  0  0  0  0  0  0  0  0  0
    4.1541   -2.2226    1.0386 H   0  0  0  0  0  0  0  0  0  0  0  0
   -2.5627   -1.7116    0.2823 H   0  0  0  0  0  0  0  0  0  0  0  0
  1  2  1  0
  2  3  1  0
  3  4  1  0
  4  5  1  0
  3  6  1  0
  6  7  2  0
  7  8  1  0
  8  9  2  0
  9 10  1  0
 10 11  2  0
 11 12  1  0
 12 13  2  0
 13 14  1  0
 14 15  2  0
 15 16  1  0
 16 17  2  0
 17 18  1  0
 18 19  2  0
 19 20  1  0
 11 21  1  0
 21 22  2  0
 21 23  1  0
 23 24  1  0
 24 25  2  0
 25  6  1  0
 24  9  1  0
 20 12  1  0
 19 14  1  0
  1 26  1  0
  1 27  1  0
  1 28  1  0
  2 29  1  0
  2 30  1  0
  4 31  1  0
  4 32  1  0
  5 33  1  0
  5 34  1  0
  5 35  1  0
  7 36  1  0
  8 37  1  0
 10 38  1  0
 15 39  1  0
 16 40  1  0
 17 41  1  0
 18 42  1  0
 20 43  1  0
 25 44  1  0
M  END
