
     RDKit          3D

 49 54  0  0  0  0  0  0  0  0999 V2000
   -3.1254   -2.2371   -2.5385 C   0  0  0  0  0  0  0  0  0  0  0  0
   -2.8263   -1.6500   -1.4096 O   0  0  0  0  0  0  0  0  0  0  0  0
   -3.1265   -1.2794   -0.1564 C   0  0  0  0  0  0  0  0  0  0  0  0
   -4.3294   -1.5743    0.4577 C   0  0  0  0  0  0  0  0  0  0  0  0
   -4.5382   -1.1437    1.7814 C   0  0  0  0  0  0  0  0  0  0  0  0
   -3.5558   -0.4558    2.4140 C   0  0  0  0  0  0  0  0  0  0  0  0
   -2.3406   -0.1452    1.8115 C   0  0  0  0  0  0  0  0  0  0  0  0
   -2.1115   -0.5518    0.5283 C   0  0  0  0  0  0  0  0  0  0  0  0
   -0.8927   -0.2913   -0.1997 C   0  0  0  0  0  0  0  0  0  0  0  0
   -0.3703   -1.3032   -0.8725 N   0  0  0  0  0  0  0  0  0  0  0  0
    0.8107   -0.9753   -1.5611 C   0  0  0  0  0  0  0  0  0  0  0  0
    1.9015   -1.8157   -1.0636 C   0  0  0  0  0  0  0  0  0  0  0  0
    2.2359   -3.1315   -1.1314 C   0  0  0  0  0  0  0  0  0  0  0  0
    3.3972   -3.5810   -0.5058 C   0  0  0  0  0  0  0  0  0  0  0  0
    4.2130   -2.7046    0.1804 C   0  0  0  0  0  0  0  0  0  0  0  0
    3.8980   -1.3622    0.2684 C   0  0  0  0  0  0  0  0  0  0  0  0
    4.6969   -0.4445    0.9450 C   0  0  0  0  0  0  0  0  0  0  0  0
    4.2711    0.8761    0.9597 C   0  0  0  0  0  0  0  0  0  0  0  0
    3.0998    1.2450    0.3192 C   0  0  0  0  0  0  0  0  0  0  0  0
    2.3000    0.3193   -0.3646 C   0  0  0  0  0  0  0  0  0  0  0  0
    2.7490   -0.9707   -0.3592 C   0  0  0  0  0  0  0  0  0  0  0  0
    1.0689    0.4460   -1.1189 C   0  0  0  0  0  0  0  0  0  0  0  0
   -0.1074    0.8480   -0.3815 N   0  0  0  0  0  0  0  0  0  0  0  0
   -0.3898    2.1621    0.0433 C   0  0  0  0  0  0  0  0  0  0  0  0
   -1.0895    3.0689   -0.6936 C   0  0  0  0  0  0  0  0  0  0  0  0
   -1.3472    4.3478   -0.3352 C   0  0  0  0  0  0  0  0  0  0  0  0
   -0.8809    4.8173    0.8594 C   0  0  0  0  0  0  0  0  0  0  0  0
   -0.1576    3.9431    1.6545 C   0  0  0  0  0  0  0  0  0  0  0  0
    0.1067    2.6276    1.2885 C   0  0  0  0  0  0  0  0  0  0  0  0
   -3.3103   -3.3424   -2.3835 H   0  0  0  0  0  0  0  0  0  0  0  0
   -2.2895   -2.2222   -3.3210 H   0  0  0  0  0  0  0  0  0  0  0  0
   -3.9791   -1.7466   -3.0764 H   0  0  0  0  0  0  0  0  0  0  0  0
   -5.0915   -2.1212   -0.0665 H   0  0  0  0  0  0  0  0  0  0  0  0
   -5.4982   -1.4021    2.2369 H   0  0  0  0  0  0  0  0  0  0  0  0
   -3.7547   -0.1525    3.4422 H   0  0  0  0  0  0  0  0  0  0  0  0
   -1.6037    0.4004    2.3990 H   0  0  0  0  0  0  0  0  0  0  0  0
    0.7366   -1.0230   -2.6713 H   0  0  0  0  0  0  0  0  0  0  0  0
    1.6061   -3.8474   -1.6758 H   0  0  0  0  0  0  0  0  0  0  0  0
    3.6146   -4.6470   -0.6030 H   0  0  0  0  0  0  0  0  0  0  0  0
    5.1044   -3.0658    0.6694 H   0  0  0  0  0  0  0  0  0  0  0  0
    5.6165   -0.7721    1.4225 H   0  0  0  0  0  0  0  0  0  0  0  0
    4.8797    1.6109    1.4776 H   0  0  0  0  0  0  0  0  0  0  0  0
    2.8431    2.2862    0.3813 H   0  0  0  0  0  0  0  0  0  0  0  0
    1.1772    1.1036   -2.0170 H   0  0  0  0  0  0  0  0  0  0  0  0
   -1.4762    2.7099   -1.6735 H   0  0  0  0  0  0  0  0  0  0  0  0
   -1.9184    5.0099   -0.9947 H   0  0  0  0  0  0  0  0  0  0  0  0
   -1.0883    5.8351    1.1334 H   0  0  0  0  0  0  0  0  0  0  0  0
    0.2095    4.3484    2.6032 H   0  0  0  0  0  0  0  0  0  0  0  0
    0.6624    1.9544    1.8970 H   0  0  0  0  0  0  0  0  0  0  0  0
  1  2  1  0
  2  3  1  0
  3  4  2  0
  4  5  1  0
  5  6  2  0
  6  7  1  0
  7  8  2  0
  8  9  1  0
  9 10  2  0
 10 11  1  0
 11 12  1  0
 12 13  2  0
 13 14  1  0
 14 15  2  0
 15 16  1  0
 16 17  2  0
 17 18  1  0
 18 19  2  0
 19 20  1  0
 20 21  2  0
 20 22  1  0
 22 23  1  0
 23 24  1  0
 24 25  2  0
 25 26  1  0
 26 27  2  0
 27 28  1  0
 28 29  2  0
  8  3  1  0
 23  9  1  0
 29 24  1  0
 22 11  1  0
 21 12  1  0
 21 16  1  0
  1 30  1  0
  1 31  1  0
  1 32  1  0
  4 33  1  0
  5 34  1  0
  6 35  1  0
  7 36  1  0
 11 37  1  0
 13 38  1  0
 14 39  1  0
 15 40  1  0
 17 41  1  0
 18 42  1  0
 19 43  1  0
 22 44  1  0
 25 45  1  0
 26 46  1  0
 27 47  1  0
 28 48  1  0
 29 49  1  0
M  END
