
     RDKit          3D

 91 95  0  0  0  0  0  0  0  0999 V2000
    8.2647   -2.7540   -2.3631 C   0  0  0  0  0  0  0  0  0  0  0  0
    7.2761   -2.2454   -1.3378 C   0  0  0  0  0  0  0  0  0  0  0  0
    5.8765   -2.3616   -1.9020 C   0  0  0  0  0  0  0  0  0  0  0  0
    4.8406   -1.8623   -0.9070 C   0  0  0  0  0  0  0  0  0  0  0  0
    5.0482   -0.4339   -0.5421 C   0  0  0  0  0  0  0  0  0  0  0  0
    4.0256    0.0216    0.4466 C   0  0  0  0  0  0  0  0  0  0  0  0
    2.5853   -0.0933   -0.0830 C   0  0  0  0  0  0  0  0  0  0  0  0
    1.7072    0.4072    1.0060 C   0  0  0  0  0  0  0  0  0  0  0  0
    0.1958    0.3300    0.6777 C   0  0  0  0  0  0  0  0  0  0  0  0
   -0.1837   -1.0763    0.4273 C   0  0  0  0  0  0  0  0  0  0  0  0
   -1.5951   -1.3454    0.1476 C   0  0  0  0  0  0  0  0  0  0  0  0
   -2.2168   -0.7015   -1.0390 C   0  0  0  0  0  0  0  0  0  0  0  0
   -3.6760   -1.1478   -1.2117 C   0  0  0  0  0  0  0  0  0  0  0  0
   -4.5299   -0.8008   -0.0405 C   0  0  0  0  0  0  0  0  0  0  0  0
   -5.9496   -1.2521   -0.2709 C   0  0  0  0  0  0  0  0  0  0  0  0
   -6.0441   -2.7269   -0.4735 C   0  0  0  0  0  0  0  0  0  0  0  0
   -7.5082   -3.0781   -0.6926 C   0  0  0  0  0  0  0  0  0  0  0  0
   -0.0063    1.2742   -0.4416 C   0  0  0  0  0  0  0  0  0  0  0  0
    0.2827    1.2603   -1.8075 C   0  0  0  0  0  0  0  0  0  0  0  0
    0.0184    2.3256   -2.6421 C   0  0  0  0  0  0  0  0  0  0  0  0
    0.3250    2.3024   -4.0683 C   0  0  0  0  0  0  0  0  0  0  0  0
   -0.4377    2.9975   -4.9912 C   0  0  0  0  0  0  0  0  0  0  0  0
   -0.1533    2.9806   -6.3399 C   0  0  0  0  0  0  0  0  0  0  0  0
    0.9178    2.2594   -6.8261 C   0  0  0  0  0  0  0  0  0  0  0  0
    1.6852    1.5631   -5.9186 C   0  0  0  0  0  0  0  0  0  0  0  0
    1.3948    1.5827   -4.5579 C   0  0  0  0  0  0  0  0  0  0  0  0
   -0.5583    3.4365   -2.0653 C   0  0  0  0  0  0  0  0  0  0  0  0
   -0.8734    3.5246   -0.7302 C   0  0  0  0  0  0  0  0  0  0  0  0
   -0.5850    2.4147    0.0735 C   0  0  0  0  0  0  0  0  0  0  0  0
   -0.8561    2.2237    1.4714 C   0  0  0  0  0  0  0  0  0  0  0  0
   -1.4728    3.0798    2.4044 C   0  0  0  0  0  0  0  0  0  0  0  0
   -1.6565    2.6216    3.6915 C   0  0  0  0  0  0  0  0  0  0  0  0
   -1.2575    1.3627    4.0856 C   0  0  0  0  0  0  0  0  0  0  0  0
   -1.4813    0.9253    5.4762 C   0  0  0  0  0  0  0  0  0  0  0  0
   -0.6230    0.0453    6.0988 C   0  0  0  0  0  0  0  0  0  0  0  0
   -0.8341   -0.3677    7.4107 C   0  0  0  0  0  0  0  0  0  0  0  0
   -1.9192    0.1003    8.1234 C   0  0  0  0  0  0  0  0  0  0  0  0
   -2.7891    0.9854    7.5083 C   0  0  0  0  0  0  0  0  0  0  0  0
   -2.5619    1.3859    6.1989 C   0  0  0  0  0  0  0  0  0  0  0  0
   -0.6631    0.5614    3.1560 C   0  0  0  0  0  0  0  0  0  0  0  0
   -0.4506    0.9753    1.8348 C   0  0  0  0  0  0  0  0  0  0  0  0
    7.7833   -2.9969   -3.3345 H   0  0  0  0  0  0  0  0  0  0  0  0
    9.0743   -2.0249   -2.5798 H   0  0  0  0  0  0  0  0  0  0  0  0
    8.7519   -3.7000   -2.0231 H   0  0  0  0  0  0  0  0  0  0  0  0
    7.4878   -1.1660   -1.2002 H   0  0  0  0  0  0  0  0  0  0  0  0
    7.3535   -2.8185   -0.4149 H   0  0  0  0  0  0  0  0  0  0  0  0
    5.6817   -3.4433   -2.0483 H   0  0  0  0  0  0  0  0  0  0  0  0
    5.7858   -1.8757   -2.8882 H   0  0  0  0  0  0  0  0  0  0  0  0
    4.8827   -2.4786   -0.0102 H   0  0  0  0  0  0  0  0  0  0  0  0
    3.8661   -1.9458   -1.4655 H   0  0  0  0  0  0  0  0  0  0  0  0
    6.0413   -0.3676   -0.0071 H   0  0  0  0  0  0  0  0  0  0  0  0
    5.1434    0.2401   -1.4152 H   0  0  0  0  0  0  0  0  0  0  0  0
    4.0446   -0.5580    1.3872 H   0  0  0  0  0  0  0  0  0  0  0  0
    4.1513    1.0872    0.7440 H   0  0  0  0  0  0  0  0  0  0  0  0
    2.5635    0.6172   -0.9649 H   0  0  0  0  0  0  0  0  0  0  0  0
    2.4286   -1.1378   -0.3527 H   0  0  0  0  0  0  0  0  0  0  0  0
    1.9738    1.4557    1.2281 H   0  0  0  0  0  0  0  0  0  0  0  0
    1.8657   -0.1970    1.9173 H   0  0  0  0  0  0  0  0  0  0  0  0
    0.4132   -1.4113   -0.4688 H   0  0  0  0  0  0  0  0  0  0  0  0
    0.1884   -1.6573    1.3305 H   0  0  0  0  0  0  0  0  0  0  0  0
   -1.7803   -2.4648    0.1510 H   0  0  0  0  0  0  0  0  0  0  0  0
   -2.2294   -1.0189    1.0444 H   0  0  0  0  0  0  0  0  0  0  0  0
   -2.2451    0.4062   -0.9629 H   0  0  0  0  0  0  0  0  0  0  0  0
   -1.6943   -0.9752   -1.9690 H   0  0  0  0  0  0  0  0  0  0  0  0
   -4.0594   -0.6327   -2.0897 H   0  0  0  0  0  0  0  0  0  0  0  0
   -3.6859   -2.2271   -1.4107 H   0  0  0  0  0  0  0  0  0  0  0  0
   -4.5491    0.2692    0.1771 H   0  0  0  0  0  0  0  0  0  0  0  0
   -4.2132   -1.3053    0.9157 H   0  0  0  0  0  0  0  0  0  0  0  0
   -6.5504   -1.0037    0.6396 H   0  0  0  0  0  0  0  0  0  0  0  0
   -6.4081   -0.6872   -1.1124 H   0  0  0  0  0  0  0  0  0  0  0  0
   -5.5044   -3.1219   -1.3338 H   0  0  0  0  0  0  0  0  0  0  0  0
   -5.6946   -3.2225    0.4666 H   0  0  0  0  0  0  0  0  0  0  0  0
   -7.9391   -2.3190   -1.3778 H   0  0  0  0  0  0  0  0  0  0  0  0
   -7.6155   -4.1104   -1.0800 H   0  0  0  0  0  0  0  0  0  0  0  0
   -8.0609   -3.0653    0.2916 H   0  0  0  0  0  0  0  0  0  0  0  0
    0.7175    0.3842   -2.2856 H   0  0  0  0  0  0  0  0  0  0  0  0
   -1.2840    3.5658   -4.5971 H   0  0  0  0  0  0  0  0  0  0  0  0
   -0.7663    3.5362   -7.0614 H   0  0  0  0  0  0  0  0  0  0  0  0
    1.1509    2.2395   -7.8892 H   0  0  0  0  0  0  0  0  0  0  0  0
    2.5250    0.9951   -6.2827 H   0  0  0  0  0  0  0  0  0  0  0  0
    2.0086    1.0279   -3.8467 H   0  0  0  0  0  0  0  0  0  0  0  0
   -0.7589    4.2753   -2.7544 H   0  0  0  0  0  0  0  0  0  0  0  0
   -1.3245    4.4224   -0.3384 H   0  0  0  0  0  0  0  0  0  0  0  0
   -1.7943    4.0716    2.1202 H   0  0  0  0  0  0  0  0  0  0  0  0
   -2.1314    3.2637    4.4341 H   0  0  0  0  0  0  0  0  0  0  0  0
    0.2242   -0.3075    5.5132 H   0  0  0  0  0  0  0  0  0  0  0  0
   -0.1197   -1.0644    7.8463 H   0  0  0  0  0  0  0  0  0  0  0  0
   -2.0453   -0.2468    9.1404 H   0  0  0  0  0  0  0  0  0  0  0  0
   -3.6276    1.3319    8.0946 H   0  0  0  0  0  0  0  0  0  0  0  0
   -3.2483    2.0787    5.7271 H   0  0  0  0  0  0  0  0  0  0  0  0
   -0.3381   -0.4159    3.4094 H   0  0  0  0  0  0  0  0  0  0  0  0
  1  2  1  0
  2  3  1  0
  3  4  1  0
  4  5  1  0
  5  6  1  0
  6  7  1  0
  7  8  1  0
  8  9  1  0
  9 10  1  0
 10 11  1  0
 11 12  1  0
 12 13  1  0
 13 14  1  0
 14 15  1  0
 15 16  1  0
 16 17  1  0
  9 18  1  0
 18 19  2  0
 19 20  1  0
 20 21  1  0
 21 22  2  0
 22 23  1  0
 23 24  2  0
 24 25  1  0
 25 26  2  0
 20 27  2  0
 27 28  1  0
 28 29  2  0
 29 30  1  0
 30 31  2  0
 31 32  1  0
 32 33  2  0
 33 34  1  0
 34 35  2  0
 35 36  1  0
 36 37  2  0
 37 38  1  0
 38 39  2  0
 33 40  1  0
 40 41  2  0
 41  9  1  0
 29 18  1  0
 41 30  1  0
 26 21  1  0
 39 34  1  0
  1 42  1  0
  1 43  1  0
  1 44  1  0
  2 45  1  0
  2 46  1  0
  3 47  1  0
  3 48  1  0
  4 49  1  0
  4 50  1  0
  5 51  1  0
  5 52  1  0
  6 53  1  0
  6 54  1  0
  7 55  1  0
  7 56  1  0
  8 57  1  0
  8 58  1  0
 10 59  1  0
 10 60  1  0
 11 61  1  0
 11 62  1  0
 12 63  1  0
 12 64  1  0
 13 65  1  0
 13 66  1  0
 14 67  1  0
 14 68  1  0
 15 69  1  0
 15 70  1  0
 16 71  1  0
 16 72  1  0
 17 73  1  0
 17 74  1  0
 17 75  1  0
 19 76  1  0
 22 77  1  0
 23 78  1  0
 24 79  1  0
 25 80  1  0
 26 81  1  0
 27 82  1  0
 28 83  1  0
 31 84  1  0
 32 85  1  0
 35 86  1  0
 36 87  1  0
 37 88  1  0
 38 89  1  0
 39 90  1  0
 40 91  1  0
M  END
