
     RDKit          3D

 44 48  0  0  0  0  0  0  0  0999 V2000
    1.1083   -2.3585    1.7085 C   0  0  0  0  0  0  0  0  0  0  0  0
   -0.0662   -2.9478    1.6734 C   0  0  0  0  0  0  0  0  0  0  0  0
   -1.2661   -2.3315    1.1097 C   0  0  0  0  0  0  0  0  0  0  0  0
   -2.4492   -3.0306    1.1181 C   0  0  0  0  0  0  0  0  0  0  0  0
   -3.6189   -2.5481    0.6187 C   0  0  0  0  0  0  0  0  0  0  0  0
   -3.5889   -1.2803    0.0785 C   0  0  0  0  0  0  0  0  0  0  0  0
   -4.7739   -0.7750   -0.4271 C   0  0  0  0  0  0  0  0  0  0  0  0
   -4.8063    0.4863   -0.9725 C   0  0  0  0  0  0  0  0  0  0  0  0
   -3.6693    1.2427   -1.0159 C   0  0  0  0  0  0  0  0  0  0  0  0
   -2.4558    0.7466   -0.5074 C   0  0  0  0  0  0  0  0  0  0  0  0
   -2.4268   -0.5021    0.0307 C   0  0  0  0  0  0  0  0  0  0  0  0
   -1.2362   -1.0274    0.5522 C   0  0  0  0  0  0  0  0  0  0  0  0
   -0.0510   -0.2979    0.5281 N   0  0  0  0  0  0  0  0  0  0  0  0
    0.1949    0.9797    0.0146 C   0  0  0  0  0  0  0  0  0  0  0  0
    0.1610    2.0597    0.9000 C   0  0  0  0  0  0  0  0  0  0  0  0
    0.5041    3.3279    0.5432 C   0  0  0  0  0  0  0  0  0  0  0  0
    0.9071    3.5764   -0.7512 C   0  0  0  0  0  0  0  0  0  0  0  0
    0.9437    2.5087   -1.6374 C   0  0  0  0  0  0  0  0  0  0  0  0
    0.5985    1.2437   -1.2709 C   0  0  0  0  0  0  0  0  0  0  0  0
    1.2459   -0.9315    1.1237 B   0  0  0  0  0  0  0  0  0  0  0  0
    2.5836   -0.4957    0.4386 C   0  0  0  0  0  0  0  0  0  0  0  0
    2.9066   -1.0959   -0.7702 C   0  0  0  0  0  0  0  0  0  0  0  0
    4.0773   -0.7475   -1.4187 C   0  0  0  0  0  0  0  0  0  0  0  0
    4.9203    0.1995   -0.8560 C   0  0  0  0  0  0  0  0  0  0  0  0
    4.5786    0.7793    0.3412 C   0  0  0  0  0  0  0  0  0  0  0  0
    3.4185    0.4494    1.0064 C   0  0  0  0  0  0  0  0  0  0  0  0
    1.9633   -2.8854    2.1466 H   0  0  0  0  0  0  0  0  0  0  0  0
   -0.1858   -3.9644    2.0844 H   0  0  0  0  0  0  0  0  0  0  0  0
   -2.4682   -4.0203    1.5415 H   0  0  0  0  0  0  0  0  0  0  0  0
   -4.5535   -3.1202    0.6334 H   0  0  0  0  0  0  0  0  0  0  0  0
   -5.6561   -1.3988   -0.3776 H   0  0  0  0  0  0  0  0  0  0  0  0
   -5.7394    0.8749   -1.3671 H   0  0  0  0  0  0  0  0  0  0  0  0
   -3.6527    2.2296   -1.4320 H   0  0  0  0  0  0  0  0  0  0  0  0
   -1.6684    1.3983   -0.5806 H   0  0  0  0  0  0  0  0  0  0  0  0
   -0.1587    1.8793    1.9382 H   0  0  0  0  0  0  0  0  0  0  0  0
    0.4782    4.1752    1.2352 H   0  0  0  0  0  0  0  0  0  0  0  0
    1.1926    4.5868   -1.0795 H   0  0  0  0  0  0  0  0  0  0  0  0
    1.2733    2.7498   -2.6693 H   0  0  0  0  0  0  0  0  0  0  0  0
    0.6418    0.4495   -1.9882 H   0  0  0  0  0  0  0  0  0  0  0  0
    2.2494   -1.8489   -1.2307 H   0  0  0  0  0  0  0  0  0  0  0  0
    4.3365   -1.2184   -2.3727 H   0  0  0  0  0  0  0  0  0  0  0  0
    5.8494    0.4765   -1.3698 H   0  0  0  0  0  0  0  0  0  0  0  0
    5.2328    1.5145    0.7782 H   0  0  0  0  0  0  0  0  0  0  0  0
    3.1258    0.8917    1.9516 H   0  0  0  0  0  0  0  0  0  0  0  0
  1  2  2  0
  2  3  1  0
  3  4  2  0
  4  5  1  0
  5  6  2  0
  6  7  1  0
  7  8  2  0
  8  9  1  0
  9 10  2  0
 10 11  1  0
 11 12  2  0
 12 13  1  0
 13 14  1  0
 14 15  2  0
 15 16  1  0
 16 17  2  0
 17 18  1  0
 18 19  2  0
 13 20  1  0
 20 21  1  0
 21 22  2  0
 22 23  1  0
 23 24  2  0
 24 25  1  0
 25 26  2  0
 20  1  1  0
 26 21  1  0
 12  3  1  0
 19 14  1  0
 11  6  1  0
  1 27  1  0
  2 28  1  0
  4 29  1  0
  5 30  1  0
  7 31  1  0
  8 32  1  0
  9 33  1  0
 10 34  1  0
 15 35  1  0
 16 36  1  0
 17 37  1  0
 18 38  1  0
 19 39  1  0
 22 40  1  0
 23 41  1  0
 24 42  1  0
 25 43  1  0
 26 44  1  0
M  END
