
     RDKit          3D

 24 26  0  0  0  0  0  0  0  0999 V2000
   -2.9866   -1.2807   -0.3734 B   0  0  0  0  0  0  0  0  0  0  0  0
   -3.5994    0.1297   -0.2190 C   0  0  0  0  0  0  0  0  0  0  0  0
   -2.7662    1.1350   -0.0267 C   0  0  0  0  0  0  0  0  0  0  0  0
   -1.3229    0.9576    0.0424 C   0  0  0  0  0  0  0  0  0  0  0  0
   -0.5194    2.0552    0.2455 C   0  0  0  0  0  0  0  0  0  0  0  0
    0.8493    1.9614    0.3213 C   0  0  0  0  0  0  0  0  0  0  0  0
    1.4890    0.7548    0.1967 C   0  0  0  0  0  0  0  0  0  0  0  0
    2.8709    0.6855    0.2768 C   0  0  0  0  0  0  0  0  0  0  0  0
    3.4830   -0.5583    0.1453 C   0  0  0  0  0  0  0  0  0  0  0  0
    2.7328   -1.6890   -0.0589 C   0  0  0  0  0  0  0  0  0  0  0  0
    1.3322   -1.5997   -0.1374 C   0  0  0  0  0  0  0  0  0  0  0  0
    0.6973   -0.3880   -0.0118 C   0  0  0  0  0  0  0  0  0  0  0  0
   -0.6837   -0.2767   -0.0860 C   0  0  0  0  0  0  0  0  0  0  0  0
   -1.4711   -1.4317   -0.2960 N   0  0  0  0  0  0  0  0  0  0  0  0
   -3.6814   -2.2377   -0.4632 H   0  0  0  0  0  0  0  0  0  0  0  0
   -4.6898    0.3000   -0.2663 H   0  0  0  0  0  0  0  0  0  0  0  0
   -3.2233    2.1349    0.0813 H   0  0  0  0  0  0  0  0  0  0  0  0
   -0.9680    3.0481    0.3531 H   0  0  0  0  0  0  0  0  0  0  0  0
    1.4892    2.8336    0.4828 H   0  0  0  0  0  0  0  0  0  0  0  0
    3.4570    1.5873    0.4388 H   0  0  0  0  0  0  0  0  0  0  0  0
    4.5607   -0.6060    0.2086 H   0  0  0  0  0  0  0  0  0  0  0  0
    3.1924   -2.6596   -0.1627 H   0  0  0  0  0  0  0  0  0  0  0  0
    0.8069   -2.4901   -0.2940 H   0  0  0  0  0  0  0  0  0  0  0  0
   -1.0489   -2.3654   -0.3971 H   0  0  0  0  0  0  0  0  0  0  0  0
  1  2  1  0
  2  3  2  0
  3  4  1  0
  4  5  2  0
  5  6  1  0
  6  7  2  0
  7  8  1  0
  8  9  2  0
  9 10  1  0
 10 11  2  0
 11 12  1  0
 12 13  2  0
 13 14  1  0
 14  1  1  0
 13  4  1  0
 12  7  1  0
  1 15  1  0
  2 16  1  0
  3 17  1  0
  5 18  1  0
  6 19  1  0
  8 20  1  0
  9 21  1  0
 10 22  1  0
 11 23  1  0
 14 24  1  0
M  END
