
     RDKit          3D

 26 28  0  0  0  0  0  0  0  0999 V2000
   -1.7067   -0.3874    4.0725 N   0  0  0  0  0  0  0  0  0  0  0  0
   -1.3499   -0.2606    2.9970 C   0  0  0  0  0  0  0  0  0  0  0  0
   -0.9066   -0.0794    1.5986 C   0  0  0  0  0  0  0  0  0  0  0  0
   -1.6034    0.6419    0.6900 C   0  0  0  0  0  0  0  0  0  0  0  0
   -2.8424    1.2467    1.0397 C   0  0  0  0  0  0  0  0  0  0  0  0
   -3.8957    1.7468    1.3330 N   0  0  0  0  0  0  0  0  0  0  0  0
   -1.0691    0.8135   -0.6149 C   0  0  0  0  0  0  0  0  0  0  0  0
   -1.8022    1.5558   -1.5317 C   0  0  0  0  0  0  0  0  0  0  0  0
   -1.2930    1.7252   -2.7905 C   0  0  0  0  0  0  0  0  0  0  0  0
   -2.0235    2.4650   -3.6898 F   0  0  0  0  0  0  0  0  0  0  0  0
   -0.0915    1.1638   -3.1046 C   0  0  0  0  0  0  0  0  0  0  0  0
    0.6639    0.4260   -2.2349 C   0  0  0  0  0  0  0  0  0  0  0  0
    0.1386    0.2527   -0.9385 C   0  0  0  0  0  0  0  0  0  0  0  0
    0.8319   -0.4777   -0.0005 C   0  0  0  0  0  0  0  0  0  0  0  0
    2.0266   -1.0479   -0.2772 C   0  0  0  0  0  0  0  0  0  0  0  0
    2.7099   -1.7744    0.6628 C   0  0  0  0  0  0  0  0  0  0  0  0
    2.2246   -1.9687    1.9431 C   0  0  0  0  0  0  0  0  0  0  0  0
    2.8588   -2.6737    2.8904 F   0  0  0  0  0  0  0  0  0  0  0  0
    1.0089   -1.3859    2.2217 C   0  0  0  0  0  0  0  0  0  0  0  0
    0.3247   -0.6564    1.2763 C   0  0  0  0  0  0  0  0  0  0  0  0
   -2.7396    1.9587   -1.1926 H   0  0  0  0  0  0  0  0  0  0  0  0
    0.2463    1.3372   -4.1472 H   0  0  0  0  0  0  0  0  0  0  0  0
    1.5962    0.0229   -2.5465 H   0  0  0  0  0  0  0  0  0  0  0  0
    2.4633   -0.9197   -1.2835 H   0  0  0  0  0  0  0  0  0  0  0  0
    3.6681   -2.2172    0.4016 H   0  0  0  0  0  0  0  0  0  0  0  0
    0.5620   -1.5068    3.2255 H   0  0  0  0  0  0  0  0  0  0  0  0
  1  2  3  0
  2  3  1  0
  3  4  2  0
  4  5  1  0
  5  6  3  0
  4  7  1  0
  7  8  2  0
  8  9  1  0
  9 10  1  0
  9 11  2  0
 11 12  1  0
 12 13  2  0
 13 14  1  0
 14 15  2  0
 15 16  1  0
 16 17  2  0
 17 18  1  0
 17 19  1  0
 19 20  2  0
 20  3  1  0
 13  7  1  0
 20 14  1  0
  8 21  1  0
 11 22  1  0
 12 23  1  0
 15 24  1  0
 16 25  1  0
 19 26  1  0
M  END
