
     RDKit          3D

 41 45  0  0  0  0  0  0  0  0999 V2000
   -0.6961    5.6493   -0.2698 O   0  0  0  0  0  0  0  0  0  0  0  0
   -0.9916    4.5407    0.2903 C   0  0  0  0  0  0  0  0  0  0  0  0
   -1.4850    3.4311   -0.3765 O   0  0  0  0  0  0  0  0  0  0  0  0
   -1.3342    2.2587    0.5440 B   0  0  0  0  0  4  0  0  0  0  0  0
   -1.3033    2.8899    1.9212 O   0  0  0  0  0  0  0  0  0  0  0  0
   -0.8860    4.1935    1.6963 C   0  0  0  0  0  0  0  0  0  0  0  0
   -0.4581    5.0243    2.5586 O   0  0  0  0  0  0  0  0  0  0  0  0
   -2.5317    1.4082    0.3816 O   0  0  0  0  0  0  0  0  0  0  0  0
   -2.3914    0.0389    0.0699 C   0  0  0  0  0  0  0  0  0  0  0  0
   -3.5623   -0.7968   -0.0899 C   0  0  0  0  0  0  0  0  0  0  0  0
   -3.5204   -2.1179   -0.3883 C   0  0  0  0  0  0  0  0  0  0  0  0
   -4.6870   -2.8882   -0.5335 C   0  0  0  0  0  0  0  0  0  0  0  0
   -5.8784   -2.2434   -0.3595 C   0  0  0  0  0  0  0  0  0  0  0  0
   -5.9834   -0.9079   -0.0562 C   0  0  0  0  0  0  0  0  0  0  0  0
   -4.8096   -0.2036    0.0739 C   0  0  0  0  0  0  0  0  0  0  0  0
   -1.1654   -0.4375   -0.0671 C   0  0  0  0  0  0  0  0  0  0  0  0
    0.0340    0.3344    0.0777 C   0  0  0  0  0  0  0  0  0  0  0  0
    1.3621   -0.2704   -0.0907 C   0  0  0  0  0  0  0  0  0  0  0  0
    1.4976   -1.5916   -0.3914 C   0  0  0  0  0  0  0  0  0  0  0  0
    2.8060   -2.0786   -0.5327 C   0  0  0  0  0  0  0  0  0  0  0  0
    3.9210   -1.2892   -0.3820 C   0  0  0  0  0  0  0  0  0  0  0  0
    5.2037   -1.7963   -0.5272 C   0  0  0  0  0  0  0  0  0  0  0  0
    6.2948   -0.9719   -0.3680 C   0  0  0  0  0  0  0  0  0  0  0  0
    6.1492    0.3628   -0.0640 C   0  0  0  0  0  0  0  0  0  0  0  0
    4.8702    0.8505    0.0768 C   0  0  0  0  0  0  0  0  0  0  0  0
    3.7376    0.0485   -0.0764 C   0  0  0  0  0  0  0  0  0  0  0  0
    2.4714    0.5611    0.0697 C   0  0  0  0  0  0  0  0  0  0  0  0
   -0.0604    1.5665    0.3573 O   0  0  0  0  0  3  0  0  0  0  0  0
   -2.5947   -2.6306   -0.5262 H   0  0  0  0  0  0  0  0  0  0  0  0
   -4.5986   -3.9320   -0.7707 H   0  0  0  0  0  0  0  0  0  0  0  0
   -6.7820   -2.8275   -0.4691 H   0  0  0  0  0  0  0  0  0  0  0  0
   -6.9634   -0.4821    0.0634 H   0  0  0  0  0  0  0  0  0  0  0  0
   -4.8728    0.8429    0.3110 H   0  0  0  0  0  0  0  0  0  0  0  0
   -1.0733   -1.4899   -0.3062 H   0  0  0  0  0  0  0  0  0  0  0  0
    0.6706   -2.2633   -0.5226 H   0  0  0  0  0  0  0  0  0  0  0  0
    2.9163   -3.1244   -0.7708 H   0  0  0  0  0  0  0  0  0  0  0  0
    5.2993   -2.8353   -0.7634 H   0  0  0  0  0  0  0  0  0  0  0  0
    7.3099   -1.3424   -0.4759 H   0  0  0  0  0  0  0  0  0  0  0  0
    6.9981    1.0162    0.0626 H   0  0  0  0  0  0  0  0  0  0  0  0
    4.7157    1.8886    0.3142 H   0  0  0  0  0  0  0  0  0  0  0  0
    2.3715    1.6146    0.3093 H   0  0  0  0  0  0  0  0  0  0  0  0
  1  2  2  0
  2  3  1  0
  3  4  1  0
  4  5  1  0
  5  6  1  0
  6  7  2  0
  4  8  1  0
  8  9  1  0
  9 10  1  0
 10 11  2  0
 11 12  1  0
 12 13  2  0
 13 14  1  0
 14 15  2  0
  9 16  2  0
 16 17  1  0
 17 18  1  0
 18 19  2  0
 19 20  1  0
 20 21  2  0
 21 22  1  0
 22 23  2  0
 23 24  1  0
 24 25  2  0
 25 26  1  0
 26 27  2  0
 17 28  2  0
  6  2  1  0
 15 10  1  0
 27 18  1  0
 28  4  1  0
 26 21  1  0
 11 29  1  0
 12 30  1  0
 13 31  1  0
 14 32  1  0
 15 33  1  0
 16 34  1  0
 19 35  1  0
 20 36  1  0
 22 37  1  0
 23 38  1  0
 24 39  1  0
 25 40  1  0
 27 41  1  0
M  CHG  2   4  -1  28   1
M  END
