
     RDKit          3D

 65 70  0  0  0  0  0  0  0  0999 V2000
   -5.5912   -0.7695   -0.1797 C   0  0  0  0  0  0  0  0  0  0  0  0
   -5.0458   -1.9893   -0.8001 C   0  0  0  0  0  0  0  0  0  0  0  0
   -5.9648   -2.9036   -1.3136 C   0  0  0  0  0  0  0  0  0  0  0  0
   -5.5767   -4.1232   -1.7950 C   0  0  0  0  0  0  0  0  0  0  0  0
   -4.2476   -4.4264   -1.7586 C   0  0  0  0  0  0  0  0  0  0  0  0
   -3.3622   -3.4955   -1.2441 C   0  0  0  0  0  0  0  0  0  0  0  0
   -2.0404   -3.5635   -1.0716 N   0  0  0  0  0  0  0  0  0  0  0  0
   -1.5611   -2.4659   -0.5204 C   0  0  0  0  0  0  0  0  0  0  0  0
   -0.1617   -2.2150   -0.2016 C   0  0  0  0  0  0  0  0  0  0  0  0
    0.6300   -3.1587    0.4179 C   0  0  0  0  0  0  0  0  0  0  0  0
    1.9768   -2.9229    0.7255 C   0  0  0  0  0  0  0  0  0  0  0  0
    2.5604   -1.7217    0.4133 C   0  0  0  0  0  0  0  0  0  0  0  0
    3.9695   -1.4092    0.7084 C   0  0  0  0  0  0  0  0  0  0  0  0
    4.8255   -2.2882    1.3210 C   0  0  0  0  0  0  0  0  0  0  0  0
    6.1536   -1.9231    1.5705 C   0  0  0  0  0  0  0  0  0  0  0  0
    6.9035   -2.7505    2.1304 O   0  0  0  0  0  0  0  0  0  0  0  0
    6.5535   -0.6635    1.1796 C   0  0  0  0  0  0  0  0  0  0  0  0
    5.6646    0.1808    0.5712 C   0  0  0  0  0  0  0  0  0  0  0  0
    6.0813    1.5064    0.1585 C   0  0  0  0  0  0  0  0  0  0  0  0
    5.1431    2.3408   -0.4606 C   0  0  0  0  0  0  0  0  0  0  0  0
    5.4827    3.6111   -0.8739 C   0  0  0  0  0  0  0  0  0  0  0  0
    6.7540    4.1147   -0.6975 C   0  0  0  0  0  0  0  0  0  0  0  0
    7.6823    3.3021   -0.0902 C   0  0  0  0  0  0  0  0  0  0  0  0
    7.3348    2.0151    0.3276 C   0  0  0  0  0  0  0  0  0  0  0  0
    4.4416   -0.2431    0.3770 O   0  0  0  0  0  0  0  0  0  0  0  0
    1.7585   -0.7697   -0.2127 C   0  0  0  0  0  0  0  0  0  0  0  0
    0.4357   -1.0102   -0.5112 C   0  0  0  0  0  0  0  0  0  0  0  0
   -2.6788   -1.5958   -0.3151 C   0  0  0  0  0  0  0  0  0  0  0  0
   -2.4669   -0.3454    0.2676 N   0  0  0  0  0  0  0  0  0  0  0  0
   -3.0678    0.9215    0.3298 C   0  0  0  0  0  0  0  0  0  0  0  0
   -3.1621    1.5643   -1.0722 C   0  0  0  0  0  0  0  0  0  0  0  0
   -3.9547    2.8249   -0.9623 C   0  0  0  0  0  0  0  0  0  0  0  0
   -4.1530    3.2538    0.4664 C   0  0  0  0  0  0  0  0  0  0  0  0
   -2.8950    3.1816    1.2619 C   0  0  0  0  0  0  0  0  0  0  0  0
   -2.0859    1.9326    1.0516 C   0  0  0  0  0  0  0  0  0  0  0  0
   -3.7461   -2.2708   -0.7641 N   0  0  0  0  0  0  0  0  0  0  0  0
   -6.7273   -0.8830   -0.0511 H   0  0  0  0  0  0  0  0  0  0  0  0
   -5.2655   -0.6944    0.8928 H   0  0  0  0  0  0  0  0  0  0  0  0
   -5.4826    0.0876   -0.8004 H   0  0  0  0  0  0  0  0  0  0  0  0
   -7.0205   -2.6276   -1.3276 H   0  0  0  0  0  0  0  0  0  0  0  0
   -6.2882   -4.8383   -2.1964 H   0  0  0  0  0  0  0  0  0  0  0  0
   -3.8536   -5.3608   -2.1131 H   0  0  0  0  0  0  0  0  0  0  0  0
    0.2196   -4.1197    0.6846 H   0  0  0  0  0  0  0  0  0  0  0  0
    2.5647   -3.6979    1.2157 H   0  0  0  0  0  0  0  0  0  0  0  0
    4.4671   -3.2623    1.6086 H   0  0  0  0  0  0  0  0  0  0  0  0
    7.5952   -0.4166    1.3913 H   0  0  0  0  0  0  0  0  0  0  0  0
    4.1546    1.9569   -0.6008 H   0  0  0  0  0  0  0  0  0  0  0  0
    4.7617    4.2587   -1.3522 H   0  0  0  0  0  0  0  0  0  0  0  0
    7.0176    5.1139   -1.0237 H   0  0  0  0  0  0  0  0  0  0  0  0
    8.6848    3.6940    0.0510 H   0  0  0  0  0  0  0  0  0  0  0  0
    8.0920    1.4154    0.7973 H   0  0  0  0  0  0  0  0  0  0  0  0
    2.2091    0.1840   -0.4644 H   0  0  0  0  0  0  0  0  0  0  0  0
   -0.1814   -0.2447   -1.0073 H   0  0  0  0  0  0  0  0  0  0  0  0
   -1.5655   -0.3505    0.9451 H   0  0  0  0  0  0  0  0  0  0  0  0
   -3.9457    1.0243    0.9330 H   0  0  0  0  0  0  0  0  0  0  0  0
   -2.1042    1.8646   -1.3177 H   0  0  0  0  0  0  0  0  0  0  0  0
   -3.5197    0.8329   -1.7965 H   0  0  0  0  0  0  0  0  0  0  0  0
   -4.9406    2.6727   -1.4564 H   0  0  0  0  0  0  0  0  0  0  0  0
   -3.4698    3.6657   -1.5075 H   0  0  0  0  0  0  0  0  0  0  0  0
   -5.0204    2.7346    0.9270 H   0  0  0  0  0  0  0  0  0  0  0  0
   -4.4483    4.3374    0.4266 H   0  0  0  0  0  0  0  0  0  0  0  0
   -2.2648    4.0946    1.0488 H   0  0  0  0  0  0  0  0  0  0  0  0
   -3.2093    3.2012    2.3495 H   0  0  0  0  0  0  0  0  0  0  0  0
   -1.2440    2.1192    0.3813 H   0  0  0  0  0  0  0  0  0  0  0  0
   -1.8048    1.5127    2.0216 H   0  0  0  0  0  0  0  0  0  0  0  0
  1  2  1  0
  2  3  2  0
  3  4  1  0
  4  5  2  0
  5  6  1  0
  6  7  2  0
  7  8  1  0
  8  9  1  0
  9 10  2  0
 10 11  1  0
 11 12  2  0
 12 13  1  0
 13 14  2  0
 14 15  1  0
 15 16  2  0
 15 17  1  0
 17 18  2  0
 18 19  1  0
 19 20  2  0
 20 21  1  0
 21 22  2  0
 22 23  1  0
 23 24  2  0
 18 25  1  0
 12 26  1  0
 26 27  2  0
  8 28  2  0
 28 29  1  0
 29 30  1  0
 30 31  1  0
 31 32  1  0
 32 33  1  0
 33 34  1  0
 34 35  1  0
 28 36  1  0
 36  2  1  0
 36  6  1  0
 27  9  1  0
 35 30  1  0
 25 13  1  0
 24 19  1  0
  1 37  1  0
  1 38  1  0
  1 39  1  0
  3 40  1  0
  4 41  1  0
  5 42  1  0
 10 43  1  0
 11 44  1  0
 14 45  1  0
 17 46  1  0
 20 47  1  0
 21 48  1  0
 22 49  1  0
 23 50  1  0
 24 51  1  0
 26 52  1  0
 27 53  1  0
 29 54  1  0
 30 55  1  0
 31 56  1  0
 31 57  1  0
 32 58  1  0
 32 59  1  0
 33 60  1  0
 33 61  1  0
 34 62  1  0
 34 63  1  0
 35 64  1  0
 35 65  1  0
M  END
