
     RDKit          3D

 38 42  0  0  0  0  0  0  0  0999 V2000
    4.1307   -1.1641   -0.1922 C   0  0  0  0  0  0  0  0  0  0  0  0
    3.6715   -2.3597   -0.4828 C   0  0  0  0  0  0  0  0  0  0  0  0
    2.2374   -2.3541   -0.2623 C   0  0  0  0  0  0  0  0  0  0  0  0
    1.1792   -3.2921   -0.3869 C   0  0  0  0  0  0  0  0  0  0  0  0
   -0.1786   -2.9709   -0.4269 C   0  0  0  0  0  0  0  0  0  0  0  0
   -1.0129   -3.5309   -1.4251 C   0  0  0  0  0  0  0  0  0  0  0  0
   -2.2421   -2.9863   -1.3350 C   0  0  0  0  0  0  0  0  0  0  0  0
   -2.1631   -2.0954   -0.2866 C   0  0  0  0  0  0  0  0  0  0  0  0
   -3.2563   -1.2105   -0.0385 C   0  0  0  0  0  0  0  0  0  0  0  0
   -3.0560    0.1954    0.2546 C   0  0  0  0  0  0  0  0  0  0  0  0
   -3.7093    0.8839    1.2589 C   0  0  0  0  0  0  0  0  0  0  0  0
   -3.1373    2.1237    1.3638 C   0  0  0  0  0  0  0  0  0  0  0  0
   -2.1348    2.1465    0.3983 C   0  0  0  0  0  0  0  0  0  0  0  0
   -1.2380    3.2446    0.2821 C   0  0  0  0  0  0  0  0  0  0  0  0
    0.1728    3.1394    0.2296 C   0  0  0  0  0  0  0  0  0  0  0  0
    0.7913    1.9936    0.5075 N   0  0  0  0  0  0  0  0  0  0  0  0
    2.1008    2.0856    0.4006 C   0  0  0  0  0  0  0  0  0  0  0  0
    2.9900    1.0271    0.6614 C   0  0  0  0  0  0  0  0  0  0  0  0
    3.0018   -0.2801    0.2466 C   0  0  0  0  0  0  0  0  0  0  0  0
    1.9839   -1.1053    0.1527 N   0  0  0  0  0  0  0  0  0  0  0  0
    2.3397    3.4817   -0.0006 C   0  0  0  0  0  0  0  0  0  0  0  0
    1.1922    4.1043   -0.1011 C   0  0  0  0  0  0  0  0  0  0  0  0
   -2.1070    0.9849   -0.2633 N   0  0  0  0  0  0  0  0  0  0  0  0
   -0.9276   -2.0938    0.2638 N   0  0  0  0  0  0  0  0  0  0  0  0
    5.1533   -0.8098   -0.2405 H   0  0  0  0  0  0  0  0  0  0  0  0
    4.2598   -3.2009   -0.8280 H   0  0  0  0  0  0  0  0  0  0  0  0
    1.5371   -4.2993   -0.4744 H   0  0  0  0  0  0  0  0  0  0  0  0
   -0.7725   -4.2933   -2.1798 H   0  0  0  0  0  0  0  0  0  0  0  0
   -3.1065   -3.2367   -1.9843 H   0  0  0  0  0  0  0  0  0  0  0  0
   -4.2849   -1.4911   -0.0391 H   0  0  0  0  0  0  0  0  0  0  0  0
   -4.5533    0.4858    1.8634 H   0  0  0  0  0  0  0  0  0  0  0  0
   -3.4028    2.9301    2.0417 H   0  0  0  0  0  0  0  0  0  0  0  0
   -1.6132    4.2845    0.2576 H   0  0  0  0  0  0  0  0  0  0  0  0
    3.8033    1.3832    1.3186 H   0  0  0  0  0  0  0  0  0  0  0  0
    3.3454    3.8949   -0.1757 H   0  0  0  0  0  0  0  0  0  0  0  0
    1.0101    5.1520   -0.3809 H   0  0  0  0  0  0  0  0  0  0  0  0
   -1.4261    0.7623   -1.1562 H   0  0  0  0  0  0  0  0  0  0  0  0
   -0.5781   -1.5292    1.1591 H   0  0  0  0  0  0  0  0  0  0  0  0
  1  2  2  0
  2  3  1  0
  3  4  2  0
  4  5  1  0
  5  6  2  0
  6  7  1  0
  7  8  2  0
  8  9  1  0
  9 10  2  0
 10 11  1  0
 11 12  2  0
 12 13  1  0
 13 14  2  0
 14 15  1  0
 15 16  2  0
 16 17  1  0
 17 18  2  0
 18 19  1  0
 19 20  2  0
 17 21  1  0
 21 22  2  0
 13 23  1  0
  8 24  1  0
 19  1  1  0
 20  3  1  0
 24  5  1  0
 23 10  1  0
 22 15  1  0
  1 25  1  0
  2 26  1  0
  4 27  1  0
  6 28  1  0
  7 29  1  0
  9 30  1  0
 11 31  1  0
 12 32  1  0
 14 33  1  0
 18 34  1  0
 21 35  1  0
 22 36  1  0
 23 37  1  0
 24 38  1  0
M  END
