
     RDKit          3D

 81 88  0  0  0  0  0  0  0  0999 V2000
   -4.8204    3.3895   -0.8246 C   0  0  0  0  0  0  0  0  0  0  0  0
   -3.5622    3.9089   -0.6505 O   0  0  0  0  0  0  0  0  0  0  0  0
   -2.2869    3.5096   -0.5732 C   0  0  0  0  0  0  0  0  0  0  0  0
   -1.8512    2.1895   -0.5679 C   0  0  0  0  0  0  0  0  0  0  0  0
   -0.5374    1.8410   -0.4629 C   0  0  0  0  0  0  0  0  0  0  0  0
    0.3530    2.8846   -0.3655 C   0  0  0  0  0  0  0  0  0  0  0  0
   -0.0554    4.2031   -0.3694 C   0  0  0  0  0  0  0  0  0  0  0  0
   -1.3451    4.5745   -0.4692 C   0  0  0  0  0  0  0  0  0  0  0  0
   -1.7722    5.9558   -0.5030 C   0  0  0  0  0  0  0  0  0  0  0  0
   -1.0369    6.8661   -1.2700 C   0  0  0  0  0  0  0  0  0  0  0  0
   -1.3692    8.1988   -1.3614 C   0  0  0  0  0  0  0  0  0  0  0  0
   -2.4566    8.6635   -0.6818 C   0  0  0  0  0  0  0  0  0  0  0  0
   -3.1905    7.7915    0.0756 C   0  0  0  0  0  0  0  0  0  0  0  0
   -2.8620    6.4424    0.1734 C   0  0  0  0  0  0  0  0  0  0  0  0
    1.7671    2.3873   -0.2903 C   0  0  0  0  0  0  0  0  0  0  0  0
    1.5540    0.9832    0.0560 C   0  0  0  0  0  0  0  0  0  0  0  0
    2.5006    0.1058    0.5664 C   0  0  0  0  0  0  0  0  0  0  0  0
    2.1359   -1.1632    0.8317 C   0  0  0  0  0  0  0  0  0  0  0  0
    0.8325   -1.5364    0.5624 C   0  0  0  0  0  0  0  0  0  0  0  0
   -0.0991   -0.6731    0.0498 C   0  0  0  0  0  0  0  0  0  0  0  0
    0.2409    0.6178   -0.2031 C   0  0  0  0  0  0  0  0  0  0  0  0
   -1.3266   -1.4218   -0.2327 C   0  0  0  0  0  0  0  0  0  0  0  0
   -2.5341   -1.2053   -0.8469 C   0  0  0  0  0  0  0  0  0  0  0  0
   -3.4654   -2.2142   -1.0619 C   0  0  0  0  0  0  0  0  0  0  0  0
   -4.6932   -1.9402   -1.6975 O   0  0  0  0  0  0  0  0  0  0  0  0
   -4.9460   -0.6193   -2.0990 C   0  0  0  0  0  0  0  0  0  0  0  0
   -3.1888   -3.4979   -0.6523 C   0  0  0  0  0  0  0  0  0  0  0  0
   -4.1354   -4.5994   -0.8461 C   0  0  0  0  0  0  0  0  0  0  0  0
   -5.4881   -4.4838   -0.6328 C   0  0  0  0  0  0  0  0  0  0  0  0
   -6.3168   -5.5673   -0.8037 C   0  0  0  0  0  0  0  0  0  0  0  0
   -5.8041   -6.8086   -1.1988 C   0  0  0  0  0  0  0  0  0  0  0  0
   -4.4373   -6.9369   -1.4181 C   0  0  0  0  0  0  0  0  0  0  0  0
   -3.6553   -5.8379   -1.2361 C   0  0  0  0  0  0  0  0  0  0  0  0
   -1.9991   -3.7656   -0.0395 C   0  0  0  0  0  0  0  0  0  0  0  0
   -1.0895   -2.7183    0.1577 C   0  0  0  0  0  0  0  0  0  0  0  0
    0.2214   -2.8937    0.8055 C   0  0  0  0  0  0  0  0  0  0  0  0
    3.2782   -1.8966    1.3857 C   0  0  0  0  0  0  0  0  0  0  0  0
    3.2781   -3.1032    1.7430 O   0  0  0  0  0  0  0  0  0  0  0  0
    4.3678   -1.0043    1.4431 N   0  0  0  0  0  0  0  0  0  0  0  0
    5.6727   -1.2864    1.9607 C   0  0  0  0  0  0  0  0  0  0  0  0
    6.6126   -1.9156    0.9619 C   0  0  0  0  0  0  0  0  0  0  0  0
    7.9774   -2.1555    1.5521 C   0  0  0  0  0  0  0  0  0  0  0  0
    7.8453   -3.0345    2.7584 C   0  0  0  0  0  0  0  0  0  0  0  0
    8.7830   -0.9213    1.7870 C   0  0  0  0  0  0  0  0  0  0  0  0
    3.9040    0.2350    0.9400 C   0  0  0  0  0  0  0  0  0  0  0  0
    4.6189    1.2711    0.8434 O   0  0  0  0  0  0  0  0  0  0  0  0
   -5.1958    3.6230   -1.8533 H   0  0  0  0  0  0  0  0  0  0  0  0
   -4.7692    2.2828   -0.7770 H   0  0  0  0  0  0  0  0  0  0  0  0
   -5.5677    3.7860   -0.0833 H   0  0  0  0  0  0  0  0  0  0  0  0
   -2.5941    1.4277   -0.5971 H   0  0  0  0  0  0  0  0  0  0  0  0
    0.6858    5.0112   -0.2878 H   0  0  0  0  0  0  0  0  0  0  0  0
   -0.1510    6.5557   -1.8459 H   0  0  0  0  0  0  0  0  0  0  0  0
   -0.7650    8.8719   -1.9715 H   0  0  0  0  0  0  0  0  0  0  0  0
   -2.6922    9.7217   -0.7728 H   0  0  0  0  0  0  0  0  0  0  0  0
   -4.0388    8.2044    0.5988 H   0  0  0  0  0  0  0  0  0  0  0  0
   -3.4755    5.7950    0.7873 H   0  0  0  0  0  0  0  0  0  0  0  0
    2.1899    2.4856   -1.2898 H   0  0  0  0  0  0  0  0  0  0  0  0
    2.2971    2.9581    0.5098 H   0  0  0  0  0  0  0  0  0  0  0  0
   -2.7690   -0.2561   -1.2411 H   0  0  0  0  0  0  0  0  0  0  0  0
   -5.8662   -0.5977   -2.7443 H   0  0  0  0  0  0  0  0  0  0  0  0
   -4.1548   -0.1320   -2.6607 H   0  0  0  0  0  0  0  0  0  0  0  0
   -5.1845    0.0305   -1.2085 H   0  0  0  0  0  0  0  0  0  0  0  0
   -5.8987   -3.5291   -0.3251 H   0  0  0  0  0  0  0  0  0  0  0  0
   -7.3960   -5.5303   -0.6475 H   0  0  0  0  0  0  0  0  0  0  0  0
   -6.4274   -7.6602   -1.3320 H   0  0  0  0  0  0  0  0  0  0  0  0
   -4.0291   -7.8994   -1.7244 H   0  0  0  0  0  0  0  0  0  0  0  0
   -2.5763   -5.9906   -1.4253 H   0  0  0  0  0  0  0  0  0  0  0  0
   -1.7826   -4.7852    0.2833 H   0  0  0  0  0  0  0  0  0  0  0  0
    0.8409   -3.5998    0.1849 H   0  0  0  0  0  0  0  0  0  0  0  0
    0.1910   -3.1622    1.8733 H   0  0  0  0  0  0  0  0  0  0  0  0
    5.5895   -1.9838    2.8257 H   0  0  0  0  0  0  0  0  0  0  0  0
    6.1213   -0.3588    2.3975 H   0  0  0  0  0  0  0  0  0  0  0  0
    6.2050   -2.8078    0.4865 H   0  0  0  0  0  0  0  0  0  0  0  0
    6.7623   -1.1400    0.1565 H   0  0  0  0  0  0  0  0  0  0  0  0
    8.5631   -2.7643    0.7842 H   0  0  0  0  0  0  0  0  0  0  0  0
    8.7917   -3.5222    2.9964 H   0  0  0  0  0  0  0  0  0  0  0  0
    7.1043   -3.8271    2.5385 H   0  0  0  0  0  0  0  0  0  0  0  0
    7.4836   -2.3898    3.5919 H   0  0  0  0  0  0  0  0  0  0  0  0
    9.3151   -0.5965    0.8451 H   0  0  0  0  0  0  0  0  0  0  0  0
    9.4898   -0.9776    2.6186 H   0  0  0  0  0  0  0  0  0  0  0  0
    8.0849   -0.0616    2.0121 H   0  0  0  0  0  0  0  0  0  0  0  0
  1  2  1  0
  2  3  1  0
  3  4  2  0
  4  5  1  0
  5  6  2  0
  6  7  1  0
  7  8  2  0
  8  9  1  0
  9 10  2  0
 10 11  1  0
 11 12  2  0
 12 13  1  0
 13 14  2  0
  6 15  1  0
 15 16  1  0
 16 17  2  0
 17 18  1  0
 18 19  2  0
 19 20  1  0
 20 21  2  0
 20 22  1  0
 22 23  2  0
 23 24  1  0
 24 25  1  0
 25 26  1  0
 24 27  2  0
 27 28  1  0
 28 29  2  0
 29 30  1  0
 30 31  2  0
 31 32  1  0
 32 33  2  0
 27 34  1  0
 34 35  2  0
 35 36  1  0
 18 37  1  0
 37 38  2  0
 37 39  1  0
 39 40  1  0
 40 41  1  0
 41 42  1  0
 42 43  1  0
 42 44  1  0
 39 45  1  0
 45 46  2  0
  8  3  1  0
 14  9  1  0
 21 16  1  0
 35 22  1  0
 21  5  1  0
 33 28  1  0
 45 17  1  0
 36 19  1  0
  1 47  1  0
  1 48  1  0
  1 49  1  0
  4 50  1  0
  7 51  1  0
 10 52  1  0
 11 53  1  0
 12 54  1  0
 13 55  1  0
 14 56  1  0
 15 57  1  0
 15 58  1  0
 23 59  1  0
 26 60  1  0
 26 61  1  0
 26 62  1  0
 29 63  1  0
 30 64  1  0
 31 65  1  0
 32 66  1  0
 33 67  1  0
 34 68  1  0
 36 69  1  0
 36 70  1  0
 40 71  1  0
 40 72  1  0
 41 73  1  0
 41 74  1  0
 42 75  1  0
 43 76  1  0
 43 77  1  0
 43 78  1  0
 44 79  1  0
 44 80  1  0
 44 81  1  0
M  END
