
     RDKit          3D

 36 38  0  0  0  0  0  0  0  0999 V2000
    1.9908   -0.5050    0.2691 C   0  0  0  0  0  0  0  0  0  0  0  0
    1.3411   -1.5184    0.4954 C   0  0  0  0  0  0  0  0  0  0  0  0
    0.5609   -2.6919    0.7695 C   0  0  0  0  0  0  0  0  0  0  0  0
    1.2094   -3.8785    1.1319 C   0  0  0  0  0  0  0  0  0  0  0  0
    0.4371   -4.9891    1.3893 C   0  0  0  0  0  0  0  0  0  0  0  0
   -0.9377   -4.9917    1.3086 C   0  0  0  0  0  0  0  0  0  0  0  0
   -1.5424   -3.8039    0.9485 C   0  0  0  0  0  0  0  0  0  0  0  0
   -0.8176   -2.6496    0.6763 C   0  0  0  0  0  0  0  0  0  0  0  0
   -1.4806   -1.4236    0.3023 C   0  0  0  0  0  0  0  0  0  0  0  0
   -2.0230   -0.3942   -0.0276 C   0  0  0  0  0  0  0  0  0  0  0  0
   -2.6789    0.8250   -0.4227 C   0  0  0  0  0  0  0  0  0  0  0  0
   -2.0012    2.0064   -0.6274 C   0  0  0  0  0  0  0  0  0  0  0  0
   -2.6183    3.1808   -1.0060 C   0  0  0  0  0  0  0  0  0  0  0  0
   -3.9961    3.1939   -1.1962 C   0  0  0  0  0  0  0  0  0  0  0  0
   -4.6941    2.0300   -0.9986 C   0  0  0  0  0  0  0  0  0  0  0  0
   -4.0527    0.8688   -0.6200 C   0  0  0  0  0  0  0  0  0  0  0  0
    2.7721    0.6691    0.0109 C   0  0  0  0  0  0  0  0  0  0  0  0
    2.8961    1.2046   -1.2636 C   0  0  0  0  0  0  0  0  0  0  0  0
    3.6504    2.3341   -1.4986 C   0  0  0  0  0  0  0  0  0  0  0  0
    4.3038    2.9577   -0.4496 C   0  0  0  0  0  0  0  0  0  0  0  0
    4.1746    2.4166    0.8184 C   0  0  0  0  0  0  0  0  0  0  0  0
    3.4157    1.2797    1.0571 C   0  0  0  0  0  0  0  0  0  0  0  0
    2.2811   -3.8657    1.1919 H   0  0  0  0  0  0  0  0  0  0  0  0
    0.9272   -5.9081    1.6692 H   0  0  0  0  0  0  0  0  0  0  0  0
   -1.5085   -5.8869    1.5192 H   0  0  0  0  0  0  0  0  0  0  0  0
   -2.6165   -3.7222    0.8626 H   0  0  0  0  0  0  0  0  0  0  0  0
   -0.9341    2.0325   -0.4892 H   0  0  0  0  0  0  0  0  0  0  0  0
   -2.0788    4.1121   -1.1666 H   0  0  0  0  0  0  0  0  0  0  0  0
   -4.5424    4.0679   -1.4897 H   0  0  0  0  0  0  0  0  0  0  0  0
   -5.7824    2.0230   -1.1444 H   0  0  0  0  0  0  0  0  0  0  0  0
   -4.6554   -0.0117   -0.4807 H   0  0  0  0  0  0  0  0  0  0  0  0
    2.3930    0.7317   -2.0969 H   0  0  0  0  0  0  0  0  0  0  0  0
    3.7281    2.7242   -2.4898 H   0  0  0  0  0  0  0  0  0  0  0  0
    4.8880    3.8359   -0.6437 H   0  0  0  0  0  0  0  0  0  0  0  0
    4.6805    2.8958    1.6435 H   0  0  0  0  0  0  0  0  0  0  0  0
    3.3105    0.8507    2.0480 H   0  0  0  0  0  0  0  0  0  0  0  0
  1  2  3  0
  2  3  1  0
  3  4  2  0
  4  5  1  0
  5  6  2  0
  6  7  1  0
  7  8  2  0
  8  9  1  0
  9 10  3  0
 10 11  1  0
 11 12  2  0
 12 13  1  0
 13 14  2  0
 14 15  1  0
 15 16  2  0
  1 17  1  0
 17 18  2  0
 18 19  1  0
 19 20  2  0
 20 21  1  0
 21 22  2  0
  8  3  1  0
 16 11  1  0
 22 17  1  0
  4 23  1  0
  5 24  1  0
  6 25  1  0
  7 26  1  0
 12 27  1  0
 13 28  1  0
 14 29  1  0
 15 30  1  0
 16 31  1  0
 18 32  1  0
 19 33  1  0
 20 34  1  0
 21 35  1  0
 22 36  1  0
M  END
