
     RDKit          3D

 54 60  0  0  0  0  0  0  0  0999 V2000
    1.0232   -2.8173   -0.3844 F   0  0  0  0  0  0  0  0  0  0  0  0
    0.7889   -1.7151    0.5359 B   0  0  0  0  0  4  0  0  0  0  0  0
    1.1146   -2.0989    1.9019 F   0  0  0  0  0  0  0  0  0  0  0  0
    1.6728   -0.5541    0.0925 N   0  0  0  0  0  0  0  0  0  0  0  0
    3.0137   -0.4511   -0.0139 C   0  0  0  0  0  0  0  0  0  0  0  0
    4.0649   -1.4319    0.2624 C   0  0  0  0  0  0  0  0  0  0  0  0
    4.0959   -2.7083    0.6932 C   0  0  0  0  0  0  0  0  0  0  0  0
    5.2912   -3.3133    0.8344 C   0  0  0  0  0  0  0  0  0  0  0  0
    6.4059   -2.5923    0.5307 C   0  0  0  0  0  0  0  0  0  0  0  0
    5.7623   -1.0956    0.0579 S   0  0  0  0  0  0  0  0  0  0  0  0
    3.2559    0.8531   -0.4686 C   0  0  0  0  0  0  0  0  0  0  0  0
    2.0835    1.5243   -0.6335 C   0  0  0  0  0  0  0  0  0  0  0  0
    1.8574    2.8888   -1.0836 C   0  0  0  0  0  0  0  0  0  0  0  0
    0.8861    3.2111   -2.0139 C   0  0  0  0  0  0  0  0  0  0  0  0
    0.7545    4.5361   -2.3719 C   0  0  0  0  0  0  0  0  0  0  0  0
    1.5393    5.5450   -1.8503 C   0  0  0  0  0  0  0  0  0  0  0  0
    2.5027    5.2283   -0.9282 C   0  0  0  0  0  0  0  0  0  0  0  0
    2.6457    3.8993   -0.5591 C   0  0  0  0  0  0  0  0  0  0  0  0
    1.0964    0.6163   -0.2733 C   0  0  0  0  0  0  0  0  0  0  0  0
   -0.3033    0.8236   -0.2718 N   0  0  0  0  0  0  0  0  0  0  0  0
   -1.1335   -0.0930    0.0805 C   0  0  0  0  0  0  0  0  0  0  0  0
   -2.6023   -0.1346    0.1683 C   0  0  0  0  0  0  0  0  0  0  0  0
   -3.5042    0.9474   -0.1528 C   0  0  0  0  0  0  0  0  0  0  0  0
   -3.0663    2.1673   -0.5880 C   0  0  0  0  0  0  0  0  0  0  0  0
   -3.9573    3.1976   -0.8921 C   0  0  0  0  0  0  0  0  0  0  0  0
   -5.3158    3.0047   -0.7585 C   0  0  0  0  0  0  0  0  0  0  0  0
   -5.7593    1.7833   -0.3226 C   0  0  0  0  0  0  0  0  0  0  0  0
   -4.8688    0.7741   -0.0256 C   0  0  0  0  0  0  0  0  0  0  0  0
   -2.9023   -1.3487    0.5946 C   0  0  0  0  0  0  0  0  0  0  0  0
   -1.7043   -2.1424    0.8035 C   0  0  0  0  0  0  0  0  0  0  0  0
   -1.6232   -3.5350    1.2620 C   0  0  0  0  0  0  0  0  0  0  0  0
   -2.6396   -4.3805    1.6082 C   0  0  0  0  0  0  0  0  0  0  0  0
   -2.2941   -5.6260    1.9955 C   0  0  0  0  0  0  0  0  0  0  0  0
   -0.9593   -5.9325    2.0075 C   0  0  0  0  0  0  0  0  0  0  0  0
   -0.2350   -4.4830    1.4818 S   0  0  0  0  0  0  0  0  0  0  0  0
   -0.6981   -1.3718    0.4925 N   0  0  0  0  0  4  0  0  0  0  0  0
    3.1538   -3.2576    0.9296 H   0  0  0  0  0  0  0  0  0  0  0  0
    5.3880   -4.3686    1.1868 H   0  0  0  0  0  0  0  0  0  0  0  0
    7.4519   -2.9485    0.5956 H   0  0  0  0  0  0  0  0  0  0  0  0
    4.2543    1.2334   -0.6506 H   0  0  0  0  0  0  0  0  0  0  0  0
    0.2825    2.4248   -2.4133 H   0  0  0  0  0  0  0  0  0  0  0  0
   -0.0068    4.8220   -3.1072 H   0  0  0  0  0  0  0  0  0  0  0  0
    1.4384    6.5866   -2.1296 H   0  0  0  0  0  0  0  0  0  0  0  0
    3.1579    5.9779   -0.4758 H   0  0  0  0  0  0  0  0  0  0  0  0
    3.3954    3.6263    0.1634 H   0  0  0  0  0  0  0  0  0  0  0  0
   -2.0161    2.3496   -0.7025 H   0  0  0  0  0  0  0  0  0  0  0  0
   -3.5637    4.1544   -1.2360 H   0  0  0  0  0  0  0  0  0  0  0  0
   -6.0010    3.8288   -1.0032 H   0  0  0  0  0  0  0  0  0  0  0  0
   -6.8207    1.6254   -0.2158 H   0  0  0  0  0  0  0  0  0  0  0  0
   -5.2256   -0.1763    0.3142 H   0  0  0  0  0  0  0  0  0  0  0  0
   -3.9089   -1.7145    0.7689 H   0  0  0  0  0  0  0  0  0  0  0  0
   -3.7074   -4.0438    1.5685 H   0  0  0  0  0  0  0  0  0  0  0  0
   -3.0504   -6.3942    2.2990 H   0  0  0  0  0  0  0  0  0  0  0  0
   -0.5096   -6.9005    2.2964 H   0  0  0  0  0  0  0  0  0  0  0  0
  1  2  1  0
  2  3  1  0
  2  4  1  0
  4  5  1  0
  5  6  1  0
  6  7  2  0
  7  8  1  0
  8  9  2  0
  9 10  1  0
  5 11  2  0
 11 12  1  0
 12 13  1  0
 13 14  2  0
 14 15  1  0
 15 16  2  0
 16 17  1  0
 17 18  2  0
 12 19  2  0
 19 20  1  0
 20 21  2  0
 21 22  1  0
 22 23  1  0
 23 24  2  0
 24 25  1  0
 25 26  2  0
 26 27  1  0
 27 28  2  0
 22 29  2  0
 29 30  1  0
 30 31  1  0
 31 32  2  0
 32 33  1  0
 33 34  2  0
 34 35  1  0
 30 36  2  0
 36  2  1  0
 19  4  1  0
 36 21  1  0
 10  6  1  0
 18 13  1  0
 28 23  1  0
 35 31  1  0
  7 37  1  0
  8 38  1  0
  9 39  1  0
 11 40  1  0
 14 41  1  0
 15 42  1  0
 16 43  1  0
 17 44  1  0
 18 45  1  0
 24 46  1  0
 25 47  1  0
 26 48  1  0
 27 49  1  0
 28 50  1  0
 29 51  1  0
 32 52  1  0
 33 53  1  0
 34 54  1  0
M  CHG  2   2  -1  36   1
M  END
