
     RDKit          3D

 46 50  0  0  0  0  0  0  0  0999 V2000
   -2.8822    0.4514   -0.0036 C   0  0  0  0  0  0  0  0  0  0  0  0
   -3.6553   -0.5860    0.2119 C   0  0  0  0  0  0  0  0  0  0  0  0
   -5.1287   -0.4548    0.1942 C   0  0  0  0  0  0  0  0  0  0  0  0
   -5.9746   -1.4745    0.4065 N   0  0  0  0  0  0  0  0  0  0  0  0
   -7.2534   -1.0277    0.3234 C   0  0  0  0  0  0  0  0  0  0  0  0
   -8.4646   -1.6516    0.4575 C   0  0  0  0  0  0  0  0  0  0  0  0
   -9.6418   -0.9596    0.3240 C   0  0  0  0  0  0  0  0  0  0  0  0
   -9.5728    0.3935    0.0486 C   0  0  0  0  0  0  0  0  0  0  0  0
   -8.3596    1.0362   -0.0893 C   0  0  0  0  0  0  0  0  0  0  0  0
   -7.1902    0.3188    0.0494 C   0  0  0  0  0  0  0  0  0  0  0  0
   -5.8769    0.6173   -0.0192 N   0  0  0  0  0  0  0  0  0  0  0  0
   -1.4261    0.4052   -0.0030 C   0  0  0  0  0  0  0  0  0  0  0  0
   -0.6888   -0.7112    0.2194 C   0  0  0  0  0  0  0  0  0  0  0  0
    0.7145   -0.6678    0.2021 C   0  0  0  0  0  0  0  0  0  0  0  0
    1.4008    0.4957   -0.0385 C   0  0  0  0  0  0  0  0  0  0  0  0
    2.8479    0.5923   -0.0669 C   0  0  0  0  0  0  0  0  0  0  0  0
    3.6865   -0.4047    0.1307 C   0  0  0  0  0  0  0  0  0  0  0  0
    5.1337   -0.2406    0.0885 C   0  0  0  0  0  0  0  0  0  0  0  0
    5.8521    0.8714   -0.1419 N   0  0  0  0  0  0  0  0  0  0  0  0
    7.1584    0.6022   -0.0950 C   0  0  0  0  0  0  0  0  0  0  0  0
    8.2772    1.3872   -0.2614 C   0  0  0  0  0  0  0  0  0  0  0  0
    9.5478    0.8572   -0.1613 C   0  0  0  0  0  0  0  0  0  0  0  0
    9.6411   -0.5012    0.1143 C   0  0  0  0  0  0  0  0  0  0  0  0
    8.5339   -1.2916    0.2816 C   0  0  0  0  0  0  0  0  0  0  0  0
    7.2824   -0.7377    0.1766 C   0  0  0  0  0  0  0  0  0  0  0  0
    6.0240   -1.2258    0.2834 N   0  0  0  0  0  0  0  0  0  0  0  0
    0.6393    1.6236   -0.2632 C   0  0  0  0  0  0  0  0  0  0  0  0
   -0.7400    1.5998   -0.2500 C   0  0  0  0  0  0  0  0  0  0  0  0
   -3.4055    1.4032   -0.1939 H   0  0  0  0  0  0  0  0  0  0  0  0
   -3.1965   -1.5380    0.4026 H   0  0  0  0  0  0  0  0  0  0  0  0
   -8.5207   -2.7285    0.6767 H   0  0  0  0  0  0  0  0  0  0  0  0
  -10.5968   -1.4844    0.4364 H   0  0  0  0  0  0  0  0  0  0  0  0
  -10.5020    0.9342   -0.0557 H   0  0  0  0  0  0  0  0  0  0  0  0
   -8.3261    2.0965   -0.3050 H   0  0  0  0  0  0  0  0  0  0  0  0
   -5.5007    1.5741   -0.2159 H   0  0  0  0  0  0  0  0  0  0  0  0
   -1.1900   -1.6486    0.4130 H   0  0  0  0  0  0  0  0  0  0  0  0
    1.2563   -1.5699    0.3822 H   0  0  0  0  0  0  0  0  0  0  0  0
    3.2931    1.5530   -0.2649 H   0  0  0  0  0  0  0  0  0  0  0  0
    3.2628   -1.3777    0.3310 H   0  0  0  0  0  0  0  0  0  0  0  0
    8.2145    2.4591   -0.4789 H   0  0  0  0  0  0  0  0  0  0  0  0
   10.4490    1.4438   -0.2860 H   0  0  0  0  0  0  0  0  0  0  0  0
   10.6220   -0.9137    0.1922 H   0  0  0  0  0  0  0  0  0  0  0  0
    8.6249   -2.3456    0.4954 H   0  0  0  0  0  0  0  0  0  0  0  0
    5.8476   -2.2486    0.4924 H   0  0  0  0  0  0  0  0  0  0  0  0
    1.1029    2.5799   -0.4604 H   0  0  0  0  0  0  0  0  0  0  0  0
   -1.3196    2.4941   -0.4282 H   0  0  0  0  0  0  0  0  0  0  0  0
  1  2  2  0
  2  3  1  0
  3  4  2  0
  4  5  1  0
  5  6  2  0
  6  7  1  0
  7  8  2  0
  8  9  1  0
  9 10  2  0
 10 11  1  0
  1 12  1  0
 12 13  2  0
 13 14  1  0
 14 15  2  0
 15 16  1  0
 16 17  2  0
 17 18  1  0
 18 19  2  0
 19 20  1  0
 20 21  2  0
 21 22  1  0
 22 23  2  0
 23 24  1  0
 24 25  2  0
 25 26  1  0
 15 27  1  0
 27 28  2  0
 11  3  1  0
 28 12  1  0
 10  5  1  0
 26 18  1  0
 25 20  1  0
  1 29  1  0
  2 30  1  0
  6 31  1  0
  7 32  1  0
  8 33  1  0
  9 34  1  0
 11 35  1  0
 13 36  1  0
 14 37  1  0
 16 38  1  0
 17 39  1  0
 21 40  1  0
 22 41  1  0
 23 42  1  0
 24 43  1  0
 26 44  1  0
 27 45  1  0
 28 46  1  0
M  END
