
     RDKit          3D

 27 28  0  0  0  0  0  0  0  0999 V2000
   -1.8406   -2.0075    2.3209 N   0  0  0  0  0  0  0  0  0  0  0  0
   -1.6060   -0.9563    1.6561 C   0  0  0  0  0  0  0  0  0  0  0  0
   -1.3440    0.2195    0.9242 C   0  0  0  0  0  0  0  0  0  0  0  0
   -1.9852    1.4531    1.1484 C   0  0  0  0  0  0  0  0  0  0  0  0
   -3.1492    1.3424    2.0215 N   0  0  0  0  0  0  0  0  0  0  0  0
   -1.5873    2.5426    0.6391 N   0  0  0  0  0  0  0  0  0  0  0  0
   -0.5040    2.7092   -0.2025 C   0  0  0  0  0  0  0  0  0  0  0  0
   -0.0597    3.9372   -0.6929 N   0  0  0  0  0  0  0  0  0  0  0  0
    0.1302    1.5209   -0.4424 C   0  0  0  0  0  0  0  0  0  0  0  0
    1.3178    1.4917   -1.3343 C   0  0  0  0  0  0  0  0  0  0  0  0
    2.2386    1.4536   -2.0195 N   0  0  0  0  0  0  0  0  0  0  0  0
   -0.2360    0.2662    0.0842 C   0  0  0  0  0  0  0  0  0  0  0  0
    0.5011   -0.9440   -0.2501 C   0  0  0  0  0  0  0  0  0  0  0  0
    1.0480   -1.6894    0.7900 C   0  0  0  0  0  0  0  0  0  0  0  0
    1.8006   -2.8372    0.3870 C   0  0  0  0  0  0  0  0  0  0  0  0
    1.9755   -3.1759   -0.8078 C   0  0  0  0  0  0  0  0  0  0  0  0
    2.9134   -4.6228   -1.3202 Cl  0  0  0  0  0  0  0  0  0  0  0  0
    1.4159   -2.4072   -1.8569 C   0  0  0  0  0  0  0  0  0  0  0  0
    0.6786   -1.2978   -1.6226 C   0  0  0  0  0  0  0  0  0  0  0  0
   -3.4523    2.2024    2.5300 H   0  0  0  0  0  0  0  0  0  0  0  0
   -3.6475    0.4323    2.0995 H   0  0  0  0  0  0  0  0  0  0  0  0
    0.9858    3.9417   -0.9875 H   0  0  0  0  0  0  0  0  0  0  0  0
   -0.5826    4.7788   -0.7826 H   0  0  0  0  0  0  0  0  0  0  0  0
    0.9033   -1.4106    1.7747 H   0  0  0  0  0  0  0  0  0  0  0  0
    2.2180   -3.4360    1.2365 H   0  0  0  0  0  0  0  0  0  0  0  0
    1.6223   -2.7820   -2.8805 H   0  0  0  0  0  0  0  0  0  0  0  0
    0.2453   -0.7247   -2.4124 H   0  0  0  0  0  0  0  0  0  0  0  0
  1  2  3  0
  2  3  1  0
  3  4  2  0
  4  5  1  0
  4  6  1  0
  6  7  2  0
  7  8  1  0
  7  9  1  0
  9 10  1  0
 10 11  3  0
  9 12  2  0
 12 13  1  0
 13 14  2  0
 14 15  1  0
 15 16  2  0
 16 17  1  0
 16 18  1  0
 18 19  2  0
 12  3  1  0
 19 13  1  0
  5 20  1  0
  5 21  1  0
  8 22  1  0
  8 23  1  0
 14 24  1  0
 15 25  1  0
 18 26  1  0
 19 27  1  0
M  END
