
     RDKit          3D

 42 44  0  0  0  0  0  0  0  0999 V2000
    4.6166   -2.0915    1.6923 O   0  0  0  0  0  0  0  0  0  0  0  0
    4.3893   -1.2873    0.7538 C   0  0  0  0  0  0  0  0  0  0  0  0
    5.0342   -0.0795    0.7385 O   0  0  0  0  0  0  0  0  0  0  0  0
    3.4305   -1.6920   -0.2912 C   0  0  0  0  0  0  0  0  0  0  0  0
    3.1949   -0.6720   -1.3403 C   0  0  0  0  0  0  0  0  0  0  0  0
    2.6457    0.6337   -0.9087 C   0  0  0  0  0  0  0  0  0  0  0  0
    1.3154    0.6251   -0.2486 C   0  0  0  0  0  0  0  0  0  0  0  0
    0.1992    0.0811   -1.1105 C   0  0  0  0  0  0  0  0  0  0  0  0
   -1.0217    0.1515   -0.3472 N   0  0  0  0  0  0  0  0  0  0  0  0
   -1.7186    1.3295   -0.4467 C   0  0  0  0  0  0  0  0  0  0  0  0
   -1.2625    2.3950   -1.1868 C   0  0  0  0  0  0  0  0  0  0  0  0
   -1.9533    3.6059   -1.2937 C   0  0  0  0  0  0  0  0  0  0  0  0
   -3.1423    3.7088   -0.6156 C   0  0  0  0  0  0  0  0  0  0  0  0
   -3.6113    2.6527    0.1297 C   0  0  0  0  0  0  0  0  0  0  0  0
   -2.9192    1.4651    0.2260 C   0  0  0  0  0  0  0  0  0  0  0  0
   -3.3901    0.4099    0.9849 C   0  0  0  0  0  0  0  0  0  0  0  0
   -4.4887    0.5550    1.5903 O   0  0  0  0  0  0  0  0  0  0  0  0
   -2.6787   -0.7615    1.0747 C   0  0  0  0  0  0  0  0  0  0  0  0
   -3.1370   -1.8252    1.8367 C   0  0  0  0  0  0  0  0  0  0  0  0
   -2.4476   -3.0064    1.9508 C   0  0  0  0  0  0  0  0  0  0  0  0
   -1.2602   -3.1035    1.2695 C   0  0  0  0  0  0  0  0  0  0  0  0
   -0.7509   -2.0591    0.4848 C   0  0  0  0  0  0  0  0  0  0  0  0
   -1.4652   -0.8888    0.3902 C   0  0  0  0  0  0  0  0  0  0  0  0
    5.7861    0.0709    1.4288 H   0  0  0  0  0  0  0  0  0  0  0  0
    2.5440   -2.1022    0.1958 H   0  0  0  0  0  0  0  0  0  0  0  0
    3.8998   -2.5799   -0.8156 H   0  0  0  0  0  0  0  0  0  0  0  0
    2.6118   -1.1106   -2.1901 H   0  0  0  0  0  0  0  0  0  0  0  0
    4.2022   -0.4506   -1.8054 H   0  0  0  0  0  0  0  0  0  0  0  0
    3.3758    1.1816   -0.2817 H   0  0  0  0  0  0  0  0  0  0  0  0
    2.5273    1.2494   -1.8531 H   0  0  0  0  0  0  0  0  0  0  0  0
    1.2889    0.0177    0.6906 H   0  0  0  0  0  0  0  0  0  0  0  0
    1.1139    1.6727    0.0959 H   0  0  0  0  0  0  0  0  0  0  0  0
    0.1365    0.5594   -2.1153 H   0  0  0  0  0  0  0  0  0  0  0  0
    0.5228   -0.9761   -1.3492 H   0  0  0  0  0  0  0  0  0  0  0  0
   -0.3262    2.3218   -1.7069 H   0  0  0  0  0  0  0  0  0  0  0  0
   -1.5339    4.4099   -1.8983 H   0  0  0  0  0  0  0  0  0  0  0  0
   -3.7195    4.6210   -0.6623 H   0  0  0  0  0  0  0  0  0  0  0  0
   -4.5430    2.7254    0.6647 H   0  0  0  0  0  0  0  0  0  0  0  0
   -4.0794   -1.7360    2.3721 H   0  0  0  0  0  0  0  0  0  0  0  0
   -2.8588   -3.7984    2.5609 H   0  0  0  0  0  0  0  0  0  0  0  0
   -0.7113   -4.0247    1.3519 H   0  0  0  0  0  0  0  0  0  0  0  0
    0.1844   -2.1977   -0.0157 H   0  0  0  0  0  0  0  0  0  0  0  0
  1  2  2  0
  2  3  1  0
  2  4  1  0
  4  5  1  0
  5  6  1  0
  6  7  1  0
  7  8  1  0
  8  9  1  0
  9 10  1  0
 10 11  2  0
 11 12  1  0
 12 13  2  0
 13 14  1  0
 14 15  2  0
 15 16  1  0
 16 17  2  0
 16 18  1  0
 18 19  2  0
 19 20  1  0
 20 21  2  0
 21 22  1  0
 22 23  2  0
 23  9  1  0
 15 10  1  0
 23 18  1  0
  3 24  1  0
  4 25  1  0
  4 26  1  0
  5 27  1  0
  5 28  1  0
  6 29  1  0
  6 30  1  0
  7 31  1  0
  7 32  1  0
  8 33  1  0
  8 34  1  0
 11 35  1  0
 12 36  1  0
 13 37  1  0
 14 38  1  0
 19 39  1  0
 20 40  1  0
 21 41  1  0
 22 42  1  0
M  END
