
     RDKit          3D

 70 78  0  0  0  0  0  0  0  0999 V2000
    8.2595   -3.5479    0.2773 C   0  0  0  0  0  0  0  0  0  0  0  0
    6.8904   -3.7980    0.4073 O   0  0  0  0  0  0  0  0  0  0  0  0
    5.8564   -2.9045    0.3046 C   0  0  0  0  0  0  0  0  0  0  0  0
    4.5833   -3.3768    0.4679 C   0  0  0  0  0  0  0  0  0  0  0  0
    3.4732   -2.5387    0.3801 C   0  0  0  0  0  0  0  0  0  0  0  0
    3.6904   -1.2059    0.1219 C   0  0  0  0  0  0  0  0  0  0  0  0
    4.9569   -0.6924   -0.0510 C   0  0  0  0  0  0  0  0  0  0  0  0
    6.0485   -1.5736    0.0475 C   0  0  0  0  0  0  0  0  0  0  0  0
    5.2642    0.7184   -0.4179 C   0  0  0  0  0  0  0  0  0  0  0  0
    4.1639    1.6271   -0.0487 C   0  0  0  0  0  0  0  0  0  0  0  0
    2.8021    1.0624   -0.0640 C   0  0  0  0  0  0  0  0  0  0  0  0
    1.5850    1.7140   -0.1577 C   0  0  0  0  0  0  0  0  0  0  0  0
    1.4706    3.1496   -0.3402 C   0  0  0  0  0  0  0  0  0  0  0  0
    1.7900    3.6919   -1.5925 C   0  0  0  0  0  0  0  0  0  0  0  0
    1.7110    5.0465   -1.8423 C   0  0  0  0  0  0  0  0  0  0  0  0
    1.3042    5.9119   -0.8336 C   0  0  0  0  0  0  0  0  0  0  0  0
    0.9898    5.3740    0.3976 C   0  0  0  0  0  0  0  0  0  0  0  0
    1.0652    4.0175    0.6603 C   0  0  0  0  0  0  0  0  0  0  0  0
    0.6479    0.7259   -0.0344 C   0  0  0  0  0  0  0  0  0  0  0  0
    1.2093   -0.4970    0.1292 N   0  0  0  0  0  0  0  0  0  0  0  0
    2.5498   -0.2647    0.1044 C   0  0  0  0  0  0  0  0  0  0  0  0
    0.3029   -1.6937    0.2896 B   0  0  0  0  0  4  0  0  0  0  0  0
    0.4234   -2.6800   -0.7829 F   0  0  0  0  0  0  0  0  0  0  0  0
    0.4085   -2.2960    1.6268 F   0  0  0  0  0  0  0  0  0  0  0  0
   -1.1984   -1.2856    0.2222 N   0  0  0  0  0  4  0  0  0  0  0  0
   -2.2210   -2.0588    0.3211 C   0  0  0  0  0  0  0  0  0  0  0  0
   -2.3066   -3.4236    0.5086 C   0  0  0  0  0  0  0  0  0  0  0  0
   -3.5171   -4.0603    0.5892 C   0  0  0  0  0  0  0  0  0  0  0  0
   -4.6761   -3.3383    0.4829 C   0  0  0  0  0  0  0  0  0  0  0  0
   -5.9037   -3.9740    0.5631 C   0  0  0  0  0  0  0  0  0  0  0  0
   -7.0554   -3.2344    0.4552 C   0  0  0  0  0  0  0  0  0  0  0  0
   -7.0118   -1.8755    0.2692 C   0  0  0  0  0  0  0  0  0  0  0  0
   -5.7831   -1.2297    0.1875 C   0  0  0  0  0  0  0  0  0  0  0  0
   -4.6277   -1.9533    0.2926 C   0  0  0  0  0  0  0  0  0  0  0  0
   -3.3991   -1.3034    0.2101 C   0  0  0  0  0  0  0  0  0  0  0  0
   -3.1013   -0.0459    0.0406 C   0  0  0  0  0  0  0  0  0  0  0  0
   -3.9051    1.1661   -0.1302 C   0  0  0  0  0  0  0  0  0  0  0  0
   -4.2945    1.6073   -1.3686 C   0  0  0  0  0  0  0  0  0  0  0  0
   -5.0164    2.7512   -1.5217 C   0  0  0  0  0  0  0  0  0  0  0  0
   -5.3956    3.5306   -0.4239 C   0  0  0  0  0  0  0  0  0  0  0  0
   -4.9906    3.0629    0.8077 C   0  0  0  0  0  0  0  0  0  0  0  0
   -4.2657    1.9175    0.9778 C   0  0  0  0  0  0  0  0  0  0  0  0
   -1.6192    0.0217    0.0415 C   0  0  0  0  0  0  0  0  0  0  0  0
   -0.7748    0.9494   -0.0737 N   0  0  0  0  0  0  0  0  0  0  0  0
    8.4478   -2.5098    0.0126 H   0  0  0  0  0  0  0  0  0  0  0  0
    8.6487   -4.2206   -0.5197 H   0  0  0  0  0  0  0  0  0  0  0  0
    8.7517   -3.7335    1.2538 H   0  0  0  0  0  0  0  0  0  0  0  0
    4.4056   -4.4170    0.6701 H   0  0  0  0  0  0  0  0  0  0  0  0
    2.5151   -2.9798    0.5238 H   0  0  0  0  0  0  0  0  0  0  0  0
    7.0470   -1.1470   -0.0881 H   0  0  0  0  0  0  0  0  0  0  0  0
    5.4394    0.7831   -1.5313 H   0  0  0  0  0  0  0  0  0  0  0  0
    6.1996    0.9894    0.1259 H   0  0  0  0  0  0  0  0  0  0  0  0
    4.3989    2.0432    0.9866 H   0  0  0  0  0  0  0  0  0  0  0  0
    4.2176    2.5543   -0.6858 H   0  0  0  0  0  0  0  0  0  0  0  0
    2.1088    3.0123   -2.3837 H   0  0  0  0  0  0  0  0  0  0  0  0
    1.9632    5.4405   -2.8140 H   0  0  0  0  0  0  0  0  0  0  0  0
    1.2345    6.9774   -0.9974 H   0  0  0  0  0  0  0  0  0  0  0  0
    0.6714    6.0338    1.1911 H   0  0  0  0  0  0  0  0  0  0  0  0
    0.8092    3.6106    1.6446 H   0  0  0  0  0  0  0  0  0  0  0  0
   -1.3997   -4.0454    0.5988 H   0  0  0  0  0  0  0  0  0  0  0  0
   -3.5731   -5.1393    0.7376 H   0  0  0  0  0  0  0  0  0  0  0  0
   -5.9395   -5.0545    0.7123 H   0  0  0  0  0  0  0  0  0  0  0  0
   -8.0221   -3.7135    0.5142 H   0  0  0  0  0  0  0  0  0  0  0  0
   -7.9365   -1.2850    0.1808 H   0  0  0  0  0  0  0  0  0  0  0  0
   -5.8182   -0.1927    0.0492 H   0  0  0  0  0  0  0  0  0  0  0  0
   -4.0340    1.0485   -2.2665 H   0  0  0  0  0  0  0  0  0  0  0  0
   -5.3238    3.0933   -2.5243 H   0  0  0  0  0  0  0  0  0  0  0  0
   -5.9750    4.4472   -0.5478 H   0  0  0  0  0  0  0  0  0  0  0  0
   -5.2679    3.6452    1.6846 H   0  0  0  0  0  0  0  0  0  0  0  0
   -3.9524    1.5652    1.9720 H   0  0  0  0  0  0  0  0  0  0  0  0
  1  2  1  0
  2  3  1  0
  3  4  2  0
  4  5  1  0
  5  6  2  0
  6  7  1  0
  7  8  2  0
  7  9  1  0
  9 10  1  0
 10 11  1  0
 11 12  1  0
 12 13  1  0
 13 14  2  0
 14 15  1  0
 15 16  2  0
 16 17  1  0
 17 18  2  0
 12 19  2  0
 19 20  1  0
 20 21  1  0
 20 22  1  0
 22 23  1  0
 22 24  1  0
 22 25  1  0
 25 26  2  0
 26 27  1  0
 27 28  2  0
 28 29  1  0
 29 30  2  0
 30 31  1  0
 31 32  2  0
 32 33  1  0
 33 34  2  0
 34 35  1  0
 35 36  2  0
 36 37  1  0
 37 38  2  0
 38 39  1  0
 39 40  2  0
 40 41  1  0
 41 42  2  0
 36 43  1  0
 43 44  2  0
  8  3  1  0
 21 11  2  0
 43 25  1  0
 21  6  1  0
 35 26  1  0
 42 37  1  0
 18 13  1  0
 44 19  1  0
 34 29  1  0
  1 45  1  0
  1 46  1  0
  1 47  1  0
  4 48  1  0
  5 49  1  0
  8 50  1  0
  9 51  1  0
  9 52  1  0
 10 53  1  0
 10 54  1  0
 14 55  1  0
 15 56  1  0
 16 57  1  0
 17 58  1  0
 18 59  1  0
 27 60  1  0
 28 61  1  0
 30 62  1  0
 31 63  1  0
 32 64  1  0
 33 65  1  0
 38 66  1  0
 39 67  1  0
 40 68  1  0
 41 69  1  0
 42 70  1  0
M  CHG  2  22  -1  25   1
M  END
