
     RDKit          3D

 23 24  0  0  0  0  0  0  0  0999 V2000
   -4.0480   -2.7525    1.1450 N   0  0  0  0  0  0  0  0  0  0  0  0
   -3.3333   -1.8360    1.0467 C   0  0  0  0  0  0  0  0  0  0  0  0
   -2.4595   -0.7061    0.9016 C   0  0  0  0  0  0  0  0  0  0  0  0
   -1.2113   -0.8379    0.3341 C   0  0  0  0  0  0  0  0  0  0  0  0
   -0.3765    0.2659    0.2000 C   0  0  0  0  0  0  0  0  0  0  0  0
    0.9472    0.1370   -0.3947 C   0  0  0  0  0  0  0  0  0  0  0  0
    1.7460   -0.9784   -0.2994 C   0  0  0  0  0  0  0  0  0  0  0  0
    2.9917   -1.0458   -0.8886 C   0  0  0  0  0  0  0  0  0  0  0  0
    3.4987    0.0268   -1.6136 C   0  0  0  0  0  0  0  0  0  0  0  0
    4.7238   -0.0590   -2.1883 F   0  0  0  0  0  0  0  0  0  0  0  0
    2.7047    1.1457   -1.7127 C   0  0  0  0  0  0  0  0  0  0  0  0
    1.4595    1.1986   -1.1174 C   0  0  0  0  0  0  0  0  0  0  0  0
   -0.8873    1.4559    0.6660 C   0  0  0  0  0  0  0  0  0  0  0  0
   -2.1029    1.5735    1.2168 N   0  0  0  0  0  0  0  0  0  0  0  0
   -2.9320    0.5285    1.3607 C   0  0  0  0  0  0  0  0  0  0  0  0
   -4.1947    0.6249    1.9273 O   0  0  0  0  0  0  0  0  0  0  0  0
   -0.8329   -1.7998   -0.0284 H   0  0  0  0  0  0  0  0  0  0  0  0
    1.3756   -1.8251    0.2588 H   0  0  0  0  0  0  0  0  0  0  0  0
    3.6188   -1.9218   -0.8144 H   0  0  0  0  0  0  0  0  0  0  0  0
    3.0933    1.9820   -2.2747 H   0  0  0  0  0  0  0  0  0  0  0  0
    0.8316    2.0998   -1.2035 H   0  0  0  0  0  0  0  0  0  0  0  0
   -0.2395    2.3186    0.5623 H   0  0  0  0  0  0  0  0  0  0  0  0
   -4.3729    0.4052    2.9164 H   0  0  0  0  0  0  0  0  0  0  0  0
  1  2  3  0
  2  3  1  0
  3  4  2  0
  4  5  1  0
  5  6  1  0
  6  7  2  0
  7  8  1  0
  8  9  2  0
  9 10  1  0
  9 11  1  0
 11 12  2  0
  5 13  2  0
 13 14  1  0
 14 15  2  0
 15 16  1  0
 15  3  1  0
 12  6  1  0
  4 17  1  0
  7 18  1  0
  8 19  1  0
 11 20  1  0
 12 21  1  0
 13 22  1  0
 16 23  1  0
M  END
