
     RDKit          3D

 47 48  0  0  0  0  0  0  0  0999 V2000
    8.2707    1.4401   -0.3970 C   0  0  0  0  0  0  0  0  0  0  0  0
    8.0329    0.2048   -1.0084 O   0  0  0  0  0  0  0  0  0  0  0  0
    6.7011   -0.2473   -1.0924 C   0  0  0  0  0  0  0  0  0  0  0  0
    5.6839    0.5111   -0.5863 C   0  0  0  0  0  0  0  0  0  0  0  0
    4.3837    0.0518   -0.6777 C   0  0  0  0  0  0  0  0  0  0  0  0
    3.3288    0.8829   -0.1283 C   0  0  0  0  0  0  0  0  0  0  0  0
    2.0572    0.6061   -0.1299 C   0  0  0  0  0  0  0  0  0  0  0  0
    1.0962    1.5210    0.4528 C   0  0  0  0  0  0  0  0  0  0  0  0
    1.5086    2.5868    0.9600 O   0  0  0  0  0  0  0  0  0  0  0  0
   -0.3637    1.1810    0.4401 C   0  0  0  0  0  0  0  0  0  0  0  0
   -0.7711    0.6000    1.7516 C   0  0  0  0  0  0  0  0  0  0  0  0
    0.0914    0.4662    2.6538 O   0  0  0  0  0  0  0  0  0  0  0  0
   -2.1557    0.1953    1.9742 C   0  0  0  0  0  0  0  0  0  0  0  0
   -3.0743    0.3279    1.0441 C   0  0  0  0  0  0  0  0  0  0  0  0
   -4.4726   -0.0525    1.1923 C   0  0  0  0  0  0  0  0  0  0  0  0
   -4.9984   -0.6047    2.3405 C   0  0  0  0  0  0  0  0  0  0  0  0
   -6.3529   -0.9509    2.4228 C   0  0  0  0  0  0  0  0  0  0  0  0
   -7.2072   -0.7518    1.3597 C   0  0  0  0  0  0  0  0  0  0  0  0
   -8.5345   -1.1072    1.4833 O   0  0  0  0  0  0  0  0  0  0  0  0
   -6.6789   -0.1990    0.2112 C   0  0  0  0  0  0  0  0  0  0  0  0
   -7.5293    0.0088   -0.8731 O   0  0  0  0  0  0  0  0  0  0  0  0
   -6.9811    0.5836   -2.0679 C   0  0  0  0  0  0  0  0  0  0  0  0
   -5.3418    0.1391    0.1396 C   0  0  0  0  0  0  0  0  0  0  0  0
    4.1054   -1.1525   -1.2687 C   0  0  0  0  0  0  0  0  0  0  0  0
    5.1396   -1.9399   -1.7916 C   0  0  0  0  0  0  0  0  0  0  0  0
    6.4101   -1.4617   -1.6871 C   0  0  0  0  0  0  0  0  0  0  0  0
    7.4544   -2.2156   -2.1939 O   0  0  0  0  0  0  0  0  0  0  0  0
    7.6779    2.2678   -0.8312 H   0  0  0  0  0  0  0  0  0  0  0  0
    8.0580    1.4208    0.6884 H   0  0  0  0  0  0  0  0  0  0  0  0
    9.3511    1.6698   -0.5182 H   0  0  0  0  0  0  0  0  0  0  0  0
    5.9016    1.4746   -0.1126 H   0  0  0  0  0  0  0  0  0  0  0  0
    3.6088    1.8395    0.3372 H   0  0  0  0  0  0  0  0  0  0  0  0
    1.6987   -0.3093   -0.5655 H   0  0  0  0  0  0  0  0  0  0  0  0
   -0.9604    2.0810    0.1860 H   0  0  0  0  0  0  0  0  0  0  0  0
   -0.5170    0.4515   -0.3806 H   0  0  0  0  0  0  0  0  0  0  0  0
   -2.4326   -0.2215    2.9203 H   0  0  0  0  0  0  0  0  0  0  0  0
   -2.7305    0.7569    0.1082 H   0  0  0  0  0  0  0  0  0  0  0  0
   -4.3632   -0.7734    3.1868 H   0  0  0  0  0  0  0  0  0  0  0  0
   -6.7499   -1.3855    3.3368 H   0  0  0  0  0  0  0  0  0  0  0  0
   -9.1853   -0.9735    0.7215 H   0  0  0  0  0  0  0  0  0  0  0  0
   -6.4991    1.5615   -1.8016 H   0  0  0  0  0  0  0  0  0  0  0  0
   -6.2733   -0.1052   -2.5631 H   0  0  0  0  0  0  0  0  0  0  0  0
   -7.8385    0.7972   -2.7329 H   0  0  0  0  0  0  0  0  0  0  0  0
   -4.9264    0.5806   -0.7800 H   0  0  0  0  0  0  0  0  0  0  0  0
    3.0838   -1.4831   -1.3246 H   0  0  0  0  0  0  0  0  0  0  0  0
    4.8832   -2.8935   -2.2555 H   0  0  0  0  0  0  0  0  0  0  0  0
    8.4108   -1.9102   -2.1430 H   0  0  0  0  0  0  0  0  0  0  0  0
  1  2  1  0
  2  3  1  0
  3  4  2  0
  4  5  1  0
  5  6  1  0
  6  7  2  0
  7  8  1  0
  8  9  2  0
  8 10  1  0
 10 11  1  0
 11 12  2  0
 11 13  1  0
 13 14  2  0
 14 15  1  0
 15 16  2  0
 16 17  1  0
 17 18  2  0
 18 19  1  0
 18 20  1  0
 20 21  1  0
 21 22  1  0
 20 23  2  0
  5 24  2  0
 24 25  1  0
 25 26  2  0
 26 27  1  0
 26  3  1  0
 23 15  1  0
  1 28  1  0
  1 29  1  0
  1 30  1  0
  4 31  1  0
  6 32  1  0
  7 33  1  0
 10 34  1  0
 10 35  1  0
 13 36  1  0
 14 37  1  0
 16 38  1  0
 17 39  1  0
 19 40  1  0
 22 41  1  0
 22 42  1  0
 22 43  1  0
 23 44  1  0
 24 45  1  0
 25 46  1  0
 27 47  1  0
M  END
