
     RDKit          3D

 32 34  0  0  0  0  0  0  0  0999 V2000
   -3.7010    2.9764   -0.2831 C   0  0  0  0  0  0  0  0  0  0  0  0
   -3.4833    1.9244    1.1703 S   0  0  0  0  0  0  0  0  0  0  0  0
   -3.8545    0.2184    0.8148 C   0  0  0  0  0  0  0  0  0  0  0  0
   -5.1456   -0.2215    0.9924 C   0  0  0  0  0  0  0  0  0  0  0  0
   -5.4840   -1.5387    0.7296 C   0  0  0  0  0  0  0  0  0  0  0  0
   -4.5368   -2.4177    0.2901 C   0  0  0  0  0  0  0  0  0  0  0  0
   -3.2396   -1.9668    0.1140 C   0  0  0  0  0  0  0  0  0  0  0  0
   -2.8871   -0.6589    0.3712 C   0  0  0  0  0  0  0  0  0  0  0  0
   -1.5457   -0.2273    0.1802 N   0  0  0  0  0  0  0  0  0  0  0  0
   -0.6277   -0.9147    0.7182 N   0  0  0  0  0  0  0  0  0  0  0  0
    0.7682   -0.5559    0.5809 C   0  0  0  0  0  0  0  0  0  0  0  0
    1.6888   -1.1427   -0.1628 N   0  0  0  0  0  0  0  0  0  0  0  0
    2.9118   -0.6806   -0.1659 C   0  0  0  0  0  0  0  0  0  0  0  0
    3.9786   -1.2126   -0.9104 C   0  0  0  0  0  0  0  0  0  0  0  0
    5.2152   -0.6356   -0.8264 C   0  0  0  0  0  0  0  0  0  0  0  0
    5.5230    0.4643   -0.0468 C   0  0  0  0  0  0  0  0  0  0  0  0
    6.8101    1.0315    0.0141 N   0  0  0  0  0  4  0  0  0  0  0  0
    7.7287    0.5458   -0.6489 O   0  0  0  0  0  0  0  0  0  0  0  0
    7.0443    2.1143    0.8023 O   0  0  0  0  0  1  0  0  0  0  0  0
    4.4617    0.9737    0.6780 C   0  0  0  0  0  0  0  0  0  0  0  0
    3.1797    0.4065    0.6155 C   0  0  0  0  0  0  0  0  0  0  0  0
    1.6498    0.7092    1.3181 S   0  0  0  0  0  0  0  0  0  0  0  0
   -4.7813    3.2749   -0.3766 H   0  0  0  0  0  0  0  0  0  0  0  0
   -3.3447    2.4732   -1.1866 H   0  0  0  0  0  0  0  0  0  0  0  0
   -3.0994    3.8986   -0.1236 H   0  0  0  0  0  0  0  0  0  0  0  0
   -5.8991    0.4775    1.3419 H   0  0  0  0  0  0  0  0  0  0  0  0
   -6.5125   -1.8700    0.8759 H   0  0  0  0  0  0  0  0  0  0  0  0
   -4.7994   -3.4644    0.0799 H   0  0  0  0  0  0  0  0  0  0  0  0
   -2.5008   -2.6751   -0.2346 H   0  0  0  0  0  0  0  0  0  0  0  0
    3.8697   -2.0607   -1.5503 H   0  0  0  0  0  0  0  0  0  0  0  0
    6.0470   -1.0632   -1.4170 H   0  0  0  0  0  0  0  0  0  0  0  0
    4.5655    1.8177    1.3162 H   0  0  0  0  0  0  0  0  0  0  0  0
  1  2  1  0
  2  3  1  0
  3  4  2  0
  4  5  1  0
  5  6  2  0
  6  7  1  0
  7  8  2  0
  8  9  1  0
  9 10  2  0
 10 11  1  0
 11 12  2  0
 12 13  1  0
 13 14  2  0
 14 15  1  0
 15 16  2  0
 16 17  1  0
 17 18  2  0
 17 19  1  0
 16 20  1  0
 20 21  2  0
 21 22  1  0
  8  3  1  0
 22 11  1  0
 21 13  1  0
  1 23  1  0
  1 24  1  0
  1 25  1  0
  4 26  1  0
  5 27  1  0
  6 28  1  0
  7 29  1  0
 14 30  1  0
 15 31  1  0
 20 32  1  0
M  CHG  2  17   1  19  -1
M  END
