
     RDKit          3D

 73 76  0  0  0  0  0  0  0  0999 V2000
   -2.6946   -4.8808    1.8809 C   0  0  0  0  0  0  0  0  0  0  0  0
   -3.8629   -3.9604    1.5978 C   0  0  0  0  0  0  0  0  0  0  0  0
   -3.7848   -3.2933    0.3212 N   0  0  0  0  0  0  0  0  0  0  0  0
   -3.8672   -4.0501   -0.9258 C   0  0  0  0  0  0  0  0  0  0  0  0
   -5.2392   -4.6663   -1.1146 C   0  0  0  0  0  0  0  0  0  0  0  0
   -3.6516   -1.8855    0.1716 C   0  0  0  0  0  0  0  0  0  0  0  0
   -4.6917   -0.9960    0.0611 C   0  0  0  0  0  0  0  0  0  0  0  0
   -4.2183    0.2839   -0.0995 C   0  0  0  0  0  0  0  0  0  0  0  0
   -2.8338    0.1440   -0.0820 C   0  0  0  0  0  0  0  0  0  0  0  0
   -2.5191   -1.1510    0.0830 N   0  0  0  0  0  0  0  0  0  0  0  0
   -1.1018   -1.6689    0.1837 B   0  0  0  0  0  4  0  0  0  0  0  0
   -0.8259   -2.6976   -0.8542 F   0  0  0  0  0  0  0  0  0  0  0  0
   -0.8657   -2.2434    1.4933 F   0  0  0  0  0  0  0  0  0  0  0  0
   -0.0869   -0.5253   -0.0266 N   0  0  0  0  0  4  0  0  0  0  0  0
    1.1549   -0.5616   -0.0345 C   0  0  0  0  0  0  0  0  0  0  0  0
    1.8638    1.0033   -0.3189 C   0  0  0  0  0  0  0  0  0  0  0  0
    3.2068    0.4941   -0.2437 C   0  0  0  0  0  0  0  0  0  0  0  0
    4.1584    1.0885   -1.0326 C   0  0  0  0  0  0  0  0  0  0  0  0
    5.5409    0.6407   -1.0126 C   0  0  0  0  0  0  0  0  0  0  0  0
    6.3925    1.1568   -1.7327 O   0  0  0  0  0  0  0  0  0  0  0  0
    5.9420   -0.4044   -0.1585 O   0  0  0  0  0  0  0  0  0  0  0  0
    7.2862   -0.8384   -0.1291 C   0  0  0  0  0  0  0  0  0  0  0  0
    8.1855    0.3244    0.2665 C   0  0  0  0  0  0  0  0  0  0  0  0
    7.7709   -1.4372   -1.4125 C   0  0  0  0  0  0  0  0  0  0  0  0
    7.3715   -1.8968    0.9494 C   0  0  0  0  0  0  0  0  0  0  0  0
    0.7208    1.4348   -0.3816 C   0  0  0  0  0  0  0  0  0  0  0  0
   -0.5105    0.7794   -0.2485 C   0  0  0  0  0  0  0  0  0  0  0  0
   -1.7976    1.1445   -0.2497 C   0  0  0  0  0  0  0  0  0  0  0  0
   -2.1054    2.5597   -0.3167 C   0  0  0  0  0  0  0  0  0  0  0  0
   -2.8061    3.1577   -1.3155 C   0  0  0  0  0  0  0  0  0  0  0  0
   -3.2783    2.3427   -2.4700 C   0  0  0  0  0  0  0  0  0  0  0  0
   -3.0714    4.5159   -1.2773 C   0  0  0  0  0  0  0  0  0  0  0  0
   -2.6287    5.2715   -0.2239 C   0  0  0  0  0  0  0  0  0  0  0  0
   -2.9392    6.7192   -0.2351 C   0  0  0  0  0  0  0  0  0  0  0  0
   -1.9286    4.6999    0.7868 C   0  0  0  0  0  0  0  0  0  0  0  0
   -1.6664    3.3575    0.7464 C   0  0  0  0  0  0  0  0  0  0  0  0
   -0.9180    2.7410    1.8807 C   0  0  0  0  0  0  0  0  0  0  0  0
   -1.9251   -4.4303    2.5163 H   0  0  0  0  0  0  0  0  0  0  0  0
   -2.2244   -5.2517    0.9611 H   0  0  0  0  0  0  0  0  0  0  0  0
   -3.0288   -5.8005    2.4602 H   0  0  0  0  0  0  0  0  0  0  0  0
   -3.8858   -3.2015    2.3993 H   0  0  0  0  0  0  0  0  0  0  0  0
   -4.8453   -4.5163    1.7195 H   0  0  0  0  0  0  0  0  0  0  0  0
   -3.0831   -4.8201   -0.9558 H   0  0  0  0  0  0  0  0  0  0  0  0
   -3.7084   -3.3884   -1.8150 H   0  0  0  0  0  0  0  0  0  0  0  0
   -5.8854   -3.9916   -1.6875 H   0  0  0  0  0  0  0  0  0  0  0  0
   -5.7221   -4.9226   -0.1482 H   0  0  0  0  0  0  0  0  0  0  0  0
   -5.1425   -5.6190   -1.6835 H   0  0  0  0  0  0  0  0  0  0  0  0
   -5.7441   -1.2524    0.0906 H   0  0  0  0  0  0  0  0  0  0  0  0
   -4.7569    1.2075   -0.2143 H   0  0  0  0  0  0  0  0  0  0  0  0
    1.7752   -1.3841    0.0833 H   0  0  0  0  0  0  0  0  0  0  0  0
    3.6498   -0.2151    0.3952 H   0  0  0  0  0  0  0  0  0  0  0  0
    3.8080    1.8876   -1.6550 H   0  0  0  0  0  0  0  0  0  0  0  0
    9.0613    0.3333   -0.3952 H   0  0  0  0  0  0  0  0  0  0  0  0
    8.5858    0.1874    1.2871 H   0  0  0  0  0  0  0  0  0  0  0  0
    7.5890    1.2587    0.2038 H   0  0  0  0  0  0  0  0  0  0  0  0
    8.7782   -1.0021   -1.6697 H   0  0  0  0  0  0  0  0  0  0  0  0
    7.9253   -2.5229   -1.3593 H   0  0  0  0  0  0  0  0  0  0  0  0
    7.1340   -1.2243   -2.2900 H   0  0  0  0  0  0  0  0  0  0  0  0
    7.1351   -1.4340    1.9252 H   0  0  0  0  0  0  0  0  0  0  0  0
    6.6152   -2.7147    0.8178 H   0  0  0  0  0  0  0  0  0  0  0  0
    8.3690   -2.3270    1.0145 H   0  0  0  0  0  0  0  0  0  0  0  0
    0.7075    2.6033   -0.5860 H   0  0  0  0  0  0  0  0  0  0  0  0
   -3.0802    2.9109   -3.4269 H   0  0  0  0  0  0  0  0  0  0  0  0
   -2.7281    1.3952   -2.5114 H   0  0  0  0  0  0  0  0  0  0  0  0
   -4.3776    2.2448   -2.4027 H   0  0  0  0  0  0  0  0  0  0  0  0
   -3.6320    4.9930   -2.0800 H   0  0  0  0  0  0  0  0  0  0  0  0
   -3.8534    6.8616    0.3967 H   0  0  0  0  0  0  0  0  0  0  0  0
   -2.0737    7.3443    0.1318 H   0  0  0  0  0  0  0  0  0  0  0  0
   -3.1781    7.0627   -1.2416 H   0  0  0  0  0  0  0  0  0  0  0  0
   -1.5639    5.2653    1.6484 H   0  0  0  0  0  0  0  0  0  0  0  0
   -1.0821    1.6390    1.9314 H   0  0  0  0  0  0  0  0  0  0  0  0
   -1.4603    3.1081    2.8136 H   0  0  0  0  0  0  0  0  0  0  0  0
    0.1475    3.0135    1.9246 H   0  0  0  0  0  0  0  0  0  0  0  0
  1  2  1  0
  2  3  1  0
  3  4  1  0
  4  5  1  0
  3  6  1  0
  6  7  2  0
  7  8  1  0
  8  9  2  0
  9 10  1  0
 10 11  1  0
 11 12  1  0
 11 13  1  0
 11 14  1  0
 14 15  2  0
 15 16  1  0
 16 17  1  0
 17 18  2  0
 18 19  1  0
 19 20  2  0
 19 21  1  0
 21 22  1  0
 22 23  1  0
 22 24  1  0
 22 25  1  0
 16 26  2  0
 26 27  1  0
 27 28  2  0
 28 29  1  0
 29 30  2  0
 30 31  1  0
 30 32  1  0
 32 33  2  0
 33 34  1  0
 33 35  1  0
 35 36  2  0
 36 37  1  0
 10  6  1  0
 27 14  1  0
 36 29  1  0
 28  9  1  0
  1 38  1  0
  1 39  1  0
  1 40  1  0
  2 41  1  0
  2 42  1  0
  4 43  1  0
  4 44  1  0
  5 45  1  0
  5 46  1  0
  5 47  1  0
  7 48  1  0
  8 49  1  0
 15 50  1  0
 17 51  1  0
 18 52  1  0
 23 53  1  0
 23 54  1  0
 23 55  1  0
 24 56  1  0
 24 57  1  0
 24 58  1  0
 25 59  1  0
 25 60  1  0
 25 61  1  0
 26 62  1  0
 31 63  1  0
 31 64  1  0
 31 65  1  0
 32 66  1  0
 34 67  1  0
 34 68  1  0
 34 69  1  0
 35 70  1  0
 37 71  1  0
 37 72  1  0
 37 73  1  0
M  CHG  2  11  -1  14   1
M  END
