
     RDKit          3D

 77 83  0  0  0  0  0  0  0  0999 V2000
   -4.5081   -4.4255   -1.8114 C   0  0  0  0  0  0  0  0  0  0  0  0
   -4.3302   -4.2929   -0.3305 C   0  0  0  0  0  0  0  0  0  0  0  0
   -3.3394   -3.1578   -0.0340 C   0  0  0  0  0  0  0  0  0  0  0  0
   -3.8461   -1.8553   -0.5802 C   0  0  0  0  0  0  0  0  0  0  0  0
   -2.8944   -0.7218   -0.3253 C   0  0  0  0  0  0  0  0  0  0  0  0
   -2.6910   -0.5441    1.1386 C   0  0  0  0  0  0  0  0  0  0  0  0
   -1.7515    0.5964    1.4670 C   0  0  0  0  0  0  0  0  0  0  0  0
   -2.2358    1.9095    0.9606 C   0  0  0  0  0  0  0  0  0  0  0  0
   -3.5775    2.2822    1.5486 C   0  0  0  0  0  0  0  0  0  0  0  0
   -3.9533    3.6269    0.9585 C   0  0  0  0  0  0  0  0  0  0  0  0
   -5.3081    4.0883    1.5014 C   0  0  0  0  0  0  0  0  0  0  0  0
   -5.6904    5.4152    0.9264 C   0  0  0  0  0  0  0  0  0  0  0  0
   -5.7935    5.3441   -0.5879 C   0  0  0  0  0  0  0  0  0  0  0  0
   -0.4054    0.3215    1.0693 N   0  0  0  0  0  0  0  0  0  0  0  0
    0.3397   -0.7414    1.4972 C   0  0  0  0  0  0  0  0  0  0  0  0
   -0.0661   -1.6106    2.2947 O   0  0  0  0  0  0  0  0  0  0  0  0
    1.5900   -0.7033    0.9188 C   0  0  0  0  0  0  0  0  0  0  0  0
    2.7290   -1.4816    0.9703 C   0  0  0  0  0  0  0  0  0  0  0  0
    2.7202   -2.5885    1.7616 C   0  0  0  0  0  0  0  0  0  0  0  0
    3.8402   -3.3856    1.8346 C   0  0  0  0  0  0  0  0  0  0  0  0
    4.9523   -3.0490    1.1046 C   0  0  0  0  0  0  0  0  0  0  0  0
    6.0550   -3.8628    1.1972 C   0  0  0  0  0  0  0  0  0  0  0  0
    7.1774   -3.5471    0.4776 C   0  0  0  0  0  0  0  0  0  0  0  0
    7.2420   -2.4253   -0.3490 C   0  0  0  0  0  0  0  0  0  0  0  0
    6.1262   -1.6326   -0.4207 C   0  0  0  0  0  0  0  0  0  0  0  0
    6.1588   -0.5166   -1.2290 C   0  0  0  0  0  0  0  0  0  0  0  0
    7.2795   -0.1943   -1.9526 C   0  0  0  0  0  0  0  0  0  0  0  0
    7.2521    0.9353   -2.7442 C   0  0  0  0  0  0  0  0  0  0  0  0
    6.1635    1.7475   -2.8419 C   0  0  0  0  0  0  0  0  0  0  0  0
    5.0396    1.3983   -2.0978 C   0  0  0  0  0  0  0  0  0  0  0  0
    3.8995    2.2010   -2.1661 C   0  0  0  0  0  0  0  0  0  0  0  0
    2.7658    1.8628   -1.4256 C   0  0  0  0  0  0  0  0  0  0  0  0
    2.7316    0.7495   -0.6185 C   0  0  0  0  0  0  0  0  0  0  0  0
    1.6006    0.4307    0.1072 C   0  0  0  0  0  0  0  0  0  0  0  0
    0.3622    1.0174    0.2357 C   0  0  0  0  0  0  0  0  0  0  0  0
    0.0082    2.0721   -0.3587 O   0  0  0  0  0  0  0  0  0  0  0  0
    3.8674   -0.0368   -0.5598 C   0  0  0  0  0  0  0  0  0  0  0  0
    5.0086    0.2789   -1.2877 C   0  0  0  0  0  0  0  0  0  0  0  0
    3.8425   -1.1381    0.2348 C   0  0  0  0  0  0  0  0  0  0  0  0
    4.9753   -1.9432    0.3078 C   0  0  0  0  0  0  0  0  0  0  0  0
   -3.7335   -3.8579   -2.3708 H   0  0  0  0  0  0  0  0  0  0  0  0
   -5.5282   -4.0929   -2.1061 H   0  0  0  0  0  0  0  0  0  0  0  0
   -4.4583   -5.5136   -2.0835 H   0  0  0  0  0  0  0  0  0  0  0  0
   -3.8860   -5.2008    0.1409 H   0  0  0  0  0  0  0  0  0  0  0  0
   -5.2871   -4.0119    0.1796 H   0  0  0  0  0  0  0  0  0  0  0  0
   -3.2946   -3.1182    1.0753 H   0  0  0  0  0  0  0  0  0  0  0  0
   -2.3512   -3.3917   -0.4290 H   0  0  0  0  0  0  0  0  0  0  0  0
   -4.1019   -1.9459   -1.6676 H   0  0  0  0  0  0  0  0  0  0  0  0
   -4.8407   -1.6672   -0.0853 H   0  0  0  0  0  0  0  0  0  0  0  0
   -3.3129    0.1843   -0.8199 H   0  0  0  0  0  0  0  0  0  0  0  0
   -1.8992   -0.9247   -0.7874 H   0  0  0  0  0  0  0  0  0  0  0  0
   -3.6751   -0.3797    1.6198 H   0  0  0  0  0  0  0  0  0  0  0  0
   -2.2788   -1.4843    1.5594 H   0  0  0  0  0  0  0  0  0  0  0  0
   -1.7450    0.6614    2.5949 H   0  0  0  0  0  0  0  0  0  0  0  0
   -2.3032    1.8468   -0.1631 H   0  0  0  0  0  0  0  0  0  0  0  0
   -1.5214    2.6901    1.2925 H   0  0  0  0  0  0  0  0  0  0  0  0
   -4.3523    1.5281    1.4154 H   0  0  0  0  0  0  0  0  0  0  0  0
   -3.4260    2.4470    2.6365 H   0  0  0  0  0  0  0  0  0  0  0  0
   -3.2153    4.3841    1.2859 H   0  0  0  0  0  0  0  0  0  0  0  0
   -3.9416    3.6085   -0.1486 H   0  0  0  0  0  0  0  0  0  0  0  0
   -5.1932    4.1602    2.5859 H   0  0  0  0  0  0  0  0  0  0  0  0
   -6.0195    3.2951    1.2631 H   0  0  0  0  0  0  0  0  0  0  0  0
   -4.9108    6.1714    1.1702 H   0  0  0  0  0  0  0  0  0  0  0  0
   -6.6693    5.7101    1.3226 H   0  0  0  0  0  0  0  0  0  0  0  0
   -6.2288    6.3178   -0.9313 H   0  0  0  0  0  0  0  0  0  0  0  0
   -4.8059    5.2080   -1.0723 H   0  0  0  0  0  0  0  0  0  0  0  0
   -6.4864    4.5331   -0.8984 H   0  0  0  0  0  0  0  0  0  0  0  0
    1.8235   -2.8270    2.3268 H   0  0  0  0  0  0  0  0  0  0  0  0
    3.8111   -4.2715    2.4776 H   0  0  0  0  0  0  0  0  0  0  0  0
    6.0182   -4.7506    1.8450 H   0  0  0  0  0  0  0  0  0  0  0  0
    8.0564   -4.1852    0.5439 H   0  0  0  0  0  0  0  0  0  0  0  0
    8.1525   -2.2397   -0.8828 H   0  0  0  0  0  0  0  0  0  0  0  0
    8.1976   -0.7463   -1.9648 H   0  0  0  0  0  0  0  0  0  0  0  0
    8.1319    1.2251   -3.3385 H   0  0  0  0  0  0  0  0  0  0  0  0
    6.1038    2.6388   -3.4495 H   0  0  0  0  0  0  0  0  0  0  0  0
    3.9297    3.0748   -2.8013 H   0  0  0  0  0  0  0  0  0  0  0  0
    1.9056    2.5012   -1.5007 H   0  0  0  0  0  0  0  0  0  0  0  0
  1  2  1  0
  2  3  1  0
  3  4  1  0
  4  5  1  0
  5  6  1  0
  6  7  1  0
  7  8  1  0
  8  9  1  0
  9 10  1  0
 10 11  1  0
 11 12  1  0
 12 13  1  0
  7 14  1  0
 14 15  1  0
 15 16  2  0
 15 17  1  0
 17 18  2  0
 18 19  1  0
 19 20  2  0
 20 21  1  0
 21 22  1  0
 22 23  2  0
 23 24  1  0
 24 25  2  0
 25 26  1  0
 26 27  1  0
 27 28  2  0
 28 29  1  0
 29 30  2  0
 30 31  1  0
 31 32  2  0
 32 33  1  0
 33 34  2  0
 34 35  1  0
 35 36  2  0
 33 37  1  0
 37 38  1  0
 37 39  2  0
 39 40  1  0
 35 14  1  0
 34 17  1  0
 39 18  1  0
 40 21  2  0
 40 25  1  0
 38 26  2  0
 38 30  1  0
  1 41  1  0
  1 42  1  0
  1 43  1  0
  2 44  1  0
  2 45  1  0
  3 46  1  0
  3 47  1  0
  4 48  1  0
  4 49  1  0
  5 50  1  0
  5 51  1  0
  6 52  1  0
  6 53  1  0
  7 54  1  0
  8 55  1  0
  8 56  1  0
  9 57  1  0
  9 58  1  0
 10 59  1  0
 10 60  1  0
 11 61  1  0
 11 62  1  0
 12 63  1  0
 12 64  1  0
 13 65  1  0
 13 66  1  0
 13 67  1  0
 19 68  1  0
 20 69  1  0
 22 70  1  0
 23 71  1  0
 24 72  1  0
 27 73  1  0
 28 74  1  0
 29 75  1  0
 31 76  1  0
 32 77  1  0
M  END
