
     RDKit          3D

124130  0  0  0  0  0  0  0  0999 V2000
  -12.7568    1.2666    0.7835 C   0  0  0  0  0  0  0  0  0  0  0  0
  -11.3212    0.8094    0.6594 C   0  0  0  0  0  0  0  0  0  0  0  0
  -10.4348    1.9363    1.1291 C   0  0  0  0  0  0  0  0  0  0  0  0
  -10.7833    2.2473    2.5792 C   0  0  0  0  0  0  0  0  0  0  0  0
  -10.7157    3.1630    0.2979 C   0  0  0  0  0  0  0  0  0  0  0  0
   -9.0017    1.6612    1.0716 C   0  0  0  0  0  0  0  0  0  0  0  0
   -8.1501    2.6477    1.5389 C   0  0  0  0  0  0  0  0  0  0  0  0
   -6.7683    2.4565    1.4974 C   0  0  0  0  0  0  0  0  0  0  0  0
   -6.2530    1.2806    0.9891 C   0  0  0  0  0  0  0  0  0  0  0  0
   -7.0602    0.2815    0.5199 C   0  0  0  0  0  0  0  0  0  0  0  0
   -8.4249    0.5068    0.5766 C   0  0  0  0  0  0  0  0  0  0  0  0
   -6.2320   -0.8811    0.0271 C   0  0  0  0  0  0  0  0  0  0  0  0
   -6.5658   -1.1524   -1.4040 C   0  0  0  0  0  0  0  0  0  0  0  0
   -6.2637    0.0544   -2.2795 C   0  0  0  0  0  0  0  0  0  0  0  0
   -6.5860   -0.1684   -3.5866 O   0  0  0  0  0  0  0  0  0  0  0  0
   -5.9469   -1.2106   -4.2033 C   0  0  0  0  0  0  0  0  0  0  0  0
   -6.3436   -2.0528    0.9311 C   0  0  0  0  0  0  0  0  0  0  0  0
   -7.7383   -2.5966    1.1214 C   0  0  0  0  0  0  0  0  0  0  0  0
   -8.2421   -3.0038   -0.0809 O   0  0  0  0  0  0  0  0  0  0  0  0
   -9.5255   -3.4844   -0.0464 C   0  0  0  0  0  0  0  0  0  0  0  0
   -4.8308   -0.3627    0.1711 C   0  0  0  0  0  0  0  0  0  0  0  0
   -3.5955   -0.9144   -0.1790 C   0  0  0  0  0  0  0  0  0  0  0  0
   -2.4261   -0.2923    0.0443 C   0  0  0  0  0  0  0  0  0  0  0  0
   -1.0873   -0.6995   -0.3332 C   0  0  0  0  0  0  0  0  0  0  0  0
   -0.0488   -0.3245    0.5384 C   0  0  0  0  0  0  0  0  0  0  0  0
    1.2425   -0.5228    0.1745 C   0  0  0  0  0  0  0  0  0  0  0  0
    1.6280   -1.0972   -1.0581 C   0  0  0  0  0  0  0  0  0  0  0  0
    3.0753   -1.0833   -1.3367 C   0  0  0  0  0  0  0  0  0  0  0  0
    3.5561   -0.9214   -2.6152 C   0  0  0  0  0  0  0  0  0  0  0  0
    4.9213   -0.6670   -2.8267 C   0  0  0  0  0  0  0  0  0  0  0  0
    5.8102   -0.5734   -1.7573 C   0  0  0  0  0  0  0  0  0  0  0  0
    5.3458   -0.7492   -0.4833 C   0  0  0  0  0  0  0  0  0  0  0  0
    3.9775   -1.0035   -0.2969 C   0  0  0  0  0  0  0  0  0  0  0  0
    6.4639   -0.6606    0.4438 C   0  0  0  0  0  0  0  0  0  0  0  0
    7.1482   -2.0186    0.6274 C   0  0  0  0  0  0  0  0  0  0  0  0
    6.2819   -3.1200    1.0977 C   0  0  0  0  0  0  0  0  0  0  0  0
    7.0296   -4.2832    1.2576 O   0  0  0  0  0  0  0  0  0  0  0  0
    7.6830   -4.7294    0.1487 C   0  0  0  0  0  0  0  0  0  0  0  0
    6.3333    0.1531    1.6604 C   0  0  0  0  0  0  0  0  0  0  0  0
    5.3183   -0.1256    2.6835 C   0  0  0  0  0  0  0  0  0  0  0  0
    5.3708    0.7922    3.7675 O   0  0  0  0  0  0  0  0  0  0  0  0
    5.1057    2.0831    3.4274 C   0  0  0  0  0  0  0  0  0  0  0  0
    7.5297    0.0715   -0.3866 C   0  0  0  0  0  0  0  0  0  0  0  0
    8.6831    0.6885    0.0464 C   0  0  0  0  0  0  0  0  0  0  0  0
    9.5364    1.2015   -0.9274 C   0  0  0  0  0  0  0  0  0  0  0  0
   10.7210    1.9416   -0.4381 C   0  0  0  0  0  0  0  0  0  0  0  0
   10.8673    3.2397   -1.2486 C   0  0  0  0  0  0  0  0  0  0  0  0
   10.4398    2.4272    0.9895 C   0  0  0  0  0  0  0  0  0  0  0  0
   11.9828    1.1627   -0.3857 C   0  0  0  0  0  0  0  0  0  0  0  0
   12.4717    0.6076   -1.6848 C   0  0  0  0  0  0  0  0  0  0  0  0
    9.2225    1.0796   -2.2688 C   0  0  0  0  0  0  0  0  0  0  0  0
    8.0460    0.4488   -2.6525 C   0  0  0  0  0  0  0  0  0  0  0  0
    7.1835   -0.0593   -1.6919 C   0  0  0  0  0  0  0  0  0  0  0  0
    0.6344   -1.4642   -1.8850 C   0  0  0  0  0  0  0  0  0  0  0  0
   -0.7131   -1.2667   -1.5256 C   0  0  0  0  0  0  0  0  0  0  0  0
   -2.5048    0.9818    0.6706 C   0  0  0  0  0  0  0  0  0  0  0  0
   -3.7028    1.5421    1.0221 C   0  0  0  0  0  0  0  0  0  0  0  0
   -4.8748    0.8743    0.7733 C   0  0  0  0  0  0  0  0  0  0  0  0
  -13.1914    0.7524    1.6734 H   0  0  0  0  0  0  0  0  0  0  0  0
  -13.3414    0.9369   -0.1072 H   0  0  0  0  0  0  0  0  0  0  0  0
  -12.8757    2.3420    0.9787 H   0  0  0  0  0  0  0  0  0  0  0  0
  -11.1383    0.6564   -0.4329 H   0  0  0  0  0  0  0  0  0  0  0  0
  -11.2023   -0.1096    1.2243 H   0  0  0  0  0  0  0  0  0  0  0  0
  -11.8598    2.4777    2.7178 H   0  0  0  0  0  0  0  0  0  0  0  0
  -10.1971    3.1288    2.8889 H   0  0  0  0  0  0  0  0  0  0  0  0
  -10.4491    1.3953    3.1905 H   0  0  0  0  0  0  0  0  0  0  0  0
  -11.5862    3.0425   -0.3925 H   0  0  0  0  0  0  0  0  0  0  0  0
   -9.8481    3.3373   -0.4038 H   0  0  0  0  0  0  0  0  0  0  0  0
  -10.8674    4.0412    0.9450 H   0  0  0  0  0  0  0  0  0  0  0  0
   -8.5144    3.5769    1.9357 H   0  0  0  0  0  0  0  0  0  0  0  0
   -6.1003    3.2432    1.8678 H   0  0  0  0  0  0  0  0  0  0  0  0
   -9.1077   -0.2505    0.2167 H   0  0  0  0  0  0  0  0  0  0  0  0
   -6.0532   -2.0582   -1.7415 H   0  0  0  0  0  0  0  0  0  0  0  0
   -7.6809   -1.3151   -1.4772 H   0  0  0  0  0  0  0  0  0  0  0  0
   -5.1539    0.2394   -2.1784 H   0  0  0  0  0  0  0  0  0  0  0  0
   -6.8371    0.9107   -1.9085 H   0  0  0  0  0  0  0  0  0  0  0  0
   -6.3302   -1.2481   -5.2621 H   0  0  0  0  0  0  0  0  0  0  0  0
   -6.2178   -2.2057   -3.7600 H   0  0  0  0  0  0  0  0  0  0  0  0
   -4.8546   -1.1019   -4.2980 H   0  0  0  0  0  0  0  0  0  0  0  0
   -5.8802   -1.8033    1.9266 H   0  0  0  0  0  0  0  0  0  0  0  0
   -5.7134   -2.8595    0.5252 H   0  0  0  0  0  0  0  0  0  0  0  0
   -8.3948   -1.9570    1.7334 H   0  0  0  0  0  0  0  0  0  0  0  0
   -7.5953   -3.5323    1.7452 H   0  0  0  0  0  0  0  0  0  0  0  0
   -9.6569   -4.3530    0.6113 H   0  0  0  0  0  0  0  0  0  0  0  0
   -9.8269   -3.6916   -1.1022 H   0  0  0  0  0  0  0  0  0  0  0  0
  -10.1940   -2.6329    0.2711 H   0  0  0  0  0  0  0  0  0  0  0  0
   -3.6141   -1.8802   -0.6467 H   0  0  0  0  0  0  0  0  0  0  0  0
   -0.3015    0.1278    1.5071 H   0  0  0  0  0  0  0  0  0  0  0  0
    2.0336   -0.2117    0.8416 H   0  0  0  0  0  0  0  0  0  0  0  0
    2.9142   -0.9845   -3.4641 H   0  0  0  0  0  0  0  0  0  0  0  0
    5.3324   -0.5370   -3.8271 H   0  0  0  0  0  0  0  0  0  0  0  0
    3.5821   -1.2092    0.6762 H   0  0  0  0  0  0  0  0  0  0  0  0
    7.5210   -2.2830   -0.4116 H   0  0  0  0  0  0  0  0  0  0  0  0
    8.0313   -1.8554    1.2520 H   0  0  0  0  0  0  0  0  0  0  0  0
    5.8258   -2.9464    2.0907 H   0  0  0  0  0  0  0  0  0  0  0  0
    5.4908   -3.3998    0.3455 H   0  0  0  0  0  0  0  0  0  0  0  0
    8.2132   -5.6858    0.4003 H   0  0  0  0  0  0  0  0  0  0  0  0
    8.4899   -4.0196   -0.1604 H   0  0  0  0  0  0  0  0  0  0  0  0
    6.9803   -4.8640   -0.6808 H   0  0  0  0  0  0  0  0  0  0  0  0
    6.3196    1.2458    1.3374 H   0  0  0  0  0  0  0  0  0  0  0  0
    7.3458    0.0954    2.1848 H   0  0  0  0  0  0  0  0  0  0  0  0
    5.4101   -1.0991    3.2033 H   0  0  0  0  0  0  0  0  0  0  0  0
    4.2988    0.0381    2.2821 H   0  0  0  0  0  0  0  0  0  0  0  0
    5.7546    2.5769    2.7136 H   0  0  0  0  0  0  0  0  0  0  0  0
    4.0510    2.0856    2.9995 H   0  0  0  0  0  0  0  0  0  0  0  0
    5.0760    2.7121    4.3673 H   0  0  0  0  0  0  0  0  0  0  0  0
    8.8923    0.7557    1.0901 H   0  0  0  0  0  0  0  0  0  0  0  0
   11.2892    2.9761   -2.2238 H   0  0  0  0  0  0  0  0  0  0  0  0
    9.8443    3.6789   -1.3336 H   0  0  0  0  0  0  0  0  0  0  0  0
   11.4878    3.9226   -0.6371 H   0  0  0  0  0  0  0  0  0  0  0  0
    9.3785    2.7459    1.1130 H   0  0  0  0  0  0  0  0  0  0  0  0
   11.0626    3.3342    1.1447 H   0  0  0  0  0  0  0  0  0  0  0  0
   10.7303    1.6498    1.7337 H   0  0  0  0  0  0  0  0  0  0  0  0
   12.7915    1.8127    0.0722 H   0  0  0  0  0  0  0  0  0  0  0  0
   11.9101    0.3058    0.3317 H   0  0  0  0  0  0  0  0  0  0  0  0
   12.1247   -0.4128   -1.8544 H   0  0  0  0  0  0  0  0  0  0  0  0
   12.3083    1.2735   -2.5623 H   0  0  0  0  0  0  0  0  0  0  0  0
   13.5988    0.5466   -1.5882 H   0  0  0  0  0  0  0  0  0  0  0  0
    9.9092    1.4835   -3.0172 H   0  0  0  0  0  0  0  0  0  0  0  0
    7.8086    0.3560   -3.6924 H   0  0  0  0  0  0  0  0  0  0  0  0
    0.8968   -1.9117   -2.8326 H   0  0  0  0  0  0  0  0  0  0  0  0
   -1.4814   -1.5719   -2.2172 H   0  0  0  0  0  0  0  0  0  0  0  0
   -1.6223    1.5418    0.8846 H   0  0  0  0  0  0  0  0  0  0  0  0
   -3.7275    2.5273    1.5066 H   0  0  0  0  0  0  0  0  0  0  0  0
  1  2  1  0
  2  3  1  0
  3  4  1  0
  3  5  1  0
  3  6  1  0
  6  7  2  0
  7  8  1  0
  8  9  2  0
  9 10  1  0
 10 11  2  0
 10 12  1  0
 12 13  1  0
 13 14  1  0
 14 15  1  0
 15 16  1  0
 12 17  1  0
 17 18  1  0
 18 19  1  0
 19 20  1  0
 12 21  1  0
 21 22  2  0
 22 23  1  0
 23 24  1  0
 24 25  2  0
 25 26  1  0
 26 27  2  0
 27 28  1  0
 28 29  2  0
 29 30  1  0
 30 31  2  0
 31 32  1  0
 32 33  2  0
 32 34  1  0
 34 35  1  0
 35 36  1  0
 36 37  1  0
 37 38  1  0
 34 39  1  0
 39 40  1  0
 40 41  1  0
 41 42  1  0
 34 43  1  0
 43 44  2  0
 44 45  1  0
 45 46  1  0
 46 47  1  0
 46 48  1  0
 46 49  1  0
 49 50  1  0
 45 51  2  0
 51 52  1  0
 52 53  2  0
 27 54  1  0
 54 55  2  0
 23 56  2  0
 56 57  1  0
 57 58  2  0
 11  6  1  0
 58 21  1  0
 58  9  1  0
 55 24  1  0
 33 28  1  0
 53 43  1  0
 53 31  1  0
  1 59  1  0
  1 60  1  0
  1 61  1  0
  2 62  1  0
  2 63  1  0
  4 64  1  0
  4 65  1  0
  4 66  1  0
  5 67  1  0
  5 68  1  0
  5 69  1  0
  7 70  1  0
  8 71  1  0
 11 72  1  0
 13 73  1  0
 13 74  1  0
 14 75  1  0
 14 76  1  0
 16 77  1  0
 16 78  1  0
 16 79  1  0
 17 80  1  0
 17 81  1  0
 18 82  1  0
 18 83  1  0
 20 84  1  0
 20 85  1  0
 20 86  1  0
 22 87  1  0
 25 88  1  0
 26 89  1  0
 29 90  1  0
 30 91  1  0
 33 92  1  0
 35 93  1  0
 35 94  1  0
 36 95  1  0
 36 96  1  0
 38 97  1  0
 38 98  1  0
 38 99  1  0
 39100  1  0
 39101  1  0
 40102  1  0
 40103  1  0
 42104  1  0
 42105  1  0
 42106  1  0
 44107  1  0
 47108  1  0
 47109  1  0
 47110  1  0
 48111  1  0
 48112  1  0
 48113  1  0
 49114  1  0
 49115  1  0
 50116  1  0
 50117  1  0
 50118  1  0
 51119  1  0
 52120  1  0
 54121  1  0
 55122  1  0
 56123  1  0
 57124  1  0
M  END
