
     RDKit          3D

 38 40  0  0  0  0  0  0  0  0999 V2000
    5.7320    0.4233    0.5030 C   0  0  0  0  0  0  0  0  0  0  0  0
    4.6213    0.5876    1.3261 O   0  0  0  0  0  0  0  0  0  0  0  0
    3.2965    0.4657    0.9396 C   0  0  0  0  0  0  0  0  0  0  0  0
    2.8727    0.1607   -0.3279 C   0  0  0  0  0  0  0  0  0  0  0  0
    1.5497    0.0555   -0.6435 C   0  0  0  0  0  0  0  0  0  0  0  0
    0.5314    0.2597    0.3397 C   0  0  0  0  0  0  0  0  0  0  0  0
   -0.8048    0.1173   -0.0862 N   0  0  0  0  0  0  0  0  0  0  0  0
   -1.8694    0.9886    0.2051 C   0  0  0  0  0  0  0  0  0  0  0  0
   -2.2238    1.3604    1.4824 C   0  0  0  0  0  0  0  0  0  0  0  0
   -3.1876    2.3154    1.7091 C   0  0  0  0  0  0  0  0  0  0  0  0
   -3.8613    2.9597    0.6978 C   0  0  0  0  0  0  0  0  0  0  0  0
   -3.5097    2.5890   -0.5799 C   0  0  0  0  0  0  0  0  0  0  0  0
   -2.5529    1.6433   -0.8354 C   0  0  0  0  0  0  0  0  0  0  0  0
   -1.0718   -1.1375   -0.7456 C   0  0  0  0  0  0  0  0  0  0  0  0
   -0.5419   -2.2612   -0.0735 C   0  0  0  0  0  0  0  0  0  0  0  0
   -0.6838   -3.5328   -0.5428 C   0  0  0  0  0  0  0  0  0  0  0  0
   -1.3778   -3.7184   -1.7282 C   0  0  0  0  0  0  0  0  0  0  0  0
   -1.9059   -2.6474   -2.4077 C   0  0  0  0  0  0  0  0  0  0  0  0
   -1.7330   -1.3626   -1.8847 C   0  0  0  0  0  0  0  0  0  0  0  0
    0.9716    0.5574    1.5758 C   0  0  0  0  0  0  0  0  0  0  0  0
    2.3396    0.6652    1.8973 C   0  0  0  0  0  0  0  0  0  0  0  0
    5.5365    0.4805   -0.5748 H   0  0  0  0  0  0  0  0  0  0  0  0
    6.5877    1.0957    0.7959 H   0  0  0  0  0  0  0  0  0  0  0  0
    6.1324   -0.6141    0.7007 H   0  0  0  0  0  0  0  0  0  0  0  0
    3.6267    0.0005   -1.0940 H   0  0  0  0  0  0  0  0  0  0  0  0
    1.2091   -0.1857   -1.6450 H   0  0  0  0  0  0  0  0  0  0  0  0
   -1.7707    0.8584    2.3598 H   0  0  0  0  0  0  0  0  0  0  0  0
   -3.4450    2.5898    2.7402 H   0  0  0  0  0  0  0  0  0  0  0  0
   -4.6135    3.7045    0.9059 H   0  0  0  0  0  0  0  0  0  0  0  0
   -4.0360    3.0904   -1.4000 H   0  0  0  0  0  0  0  0  0  0  0  0
   -2.2863    1.4254   -1.8649 H   0  0  0  0  0  0  0  0  0  0  0  0
    0.0009   -2.1184    0.8531 H   0  0  0  0  0  0  0  0  0  0  0  0
   -0.2833   -4.4020   -0.0383 H   0  0  0  0  0  0  0  0  0  0  0  0
   -1.4866   -4.7178   -2.0924 H   0  0  0  0  0  0  0  0  0  0  0  0
   -2.4482   -2.7712   -3.3301 H   0  0  0  0  0  0  0  0  0  0  0  0
   -2.1430   -0.5514   -2.4302 H   0  0  0  0  0  0  0  0  0  0  0  0
    0.2641    0.7158    2.3648 H   0  0  0  0  0  0  0  0  0  0  0  0
    2.5643    0.9105    2.9287 H   0  0  0  0  0  0  0  0  0  0  0  0
  1  2  1  0
  2  3  1  0
  3  4  2  0
  4  5  1  0
  5  6  2  0
  6  7  1  0
  7  8  1  0
  8  9  2  0
  9 10  1  0
 10 11  2  0
 11 12  1  0
 12 13  2  0
  7 14  1  0
 14 15  2  0
 15 16  1  0
 16 17  2  0
 17 18  1  0
 18 19  2  0
  6 20  1  0
 20 21  2  0
 21  3  1  0
 13  8  1  0
 19 14  1  0
  1 22  1  0
  1 23  1  0
  1 24  1  0
  4 25  1  0
  5 26  1  0
  9 27  1  0
 10 28  1  0
 11 29  1  0
 12 30  1  0
 13 31  1  0
 15 32  1  0
 16 33  1  0
 17 34  1  0
 18 35  1  0
 19 36  1  0
 20 37  1  0
 21 38  1  0
M  END
