
     RDKit          3D

 98108  0  0  0  0  0  0  0  0999 V2000
   14.2063    0.5011    3.4254 C   0  0  0  0  0  0  0  0  0  0  0  0
   13.3294    1.5117    2.9931 O   0  0  0  0  0  0  0  0  0  0  0  0
   12.1359    1.1725    2.3328 C   0  0  0  0  0  0  0  0  0  0  0  0
   11.3325    2.2007    1.9172 C   0  0  0  0  0  0  0  0  0  0  0  0
   10.1543    1.9024    1.2730 C   0  0  0  0  0  0  0  0  0  0  0  0
    9.7411    0.6237    1.0252 C   0  0  0  0  0  0  0  0  0  0  0  0
    8.4904    0.3017    0.3631 C   0  0  0  0  0  0  0  0  0  0  0  0
    7.8846    1.0399   -0.6174 C   0  0  0  0  0  0  0  0  0  0  0  0
    6.6581    0.6626   -1.1753 C   0  0  0  0  0  0  0  0  0  0  0  0
    6.0129   -0.4528   -0.7690 C   0  0  0  0  0  0  0  0  0  0  0  0
    4.7544   -0.9672   -1.2578 C   0  0  0  0  0  0  0  0  0  0  0  0
    3.5925   -0.2730   -0.9161 C   0  0  0  0  0  0  0  0  0  0  0  0
    2.4086   -0.8174   -1.3361 C   0  0  0  0  0  0  0  0  0  0  0  0
    2.3402   -1.9799   -2.0509 N   0  0  0  0  0  0  0  0  0  0  0  0
    3.4466   -2.6597   -2.3886 C   0  0  0  0  0  0  0  0  0  0  0  0
    3.4500   -3.8290   -3.0999 C   0  0  0  0  0  0  0  0  0  0  0  0
    4.6256   -4.5020   -3.4234 C   0  0  0  0  0  0  0  0  0  0  0  0
    5.8296   -3.9608   -3.0073 C   0  0  0  0  0  0  0  0  0  0  0  0
    5.8421   -2.7819   -2.2893 C   0  0  0  0  0  0  0  0  0  0  0  0
    4.6447   -2.1290   -1.9787 C   0  0  0  0  0  0  0  0  0  0  0  0
    1.1798   -0.0492   -1.0795 C   0  0  0  0  0  0  0  0  0  0  0  0
   -0.0217   -0.6583   -1.3641 C   0  0  0  0  0  0  0  0  0  0  0  0
   -1.2013   -0.0205   -1.0167 C   0  0  0  0  0  0  0  0  0  0  0  0
   -1.1544    1.2075   -0.3950 C   0  0  0  0  0  0  0  0  0  0  0  0
    0.0339    1.8350   -0.1042 C   0  0  0  0  0  0  0  0  0  0  0  0
    1.2041    1.1765   -0.4629 C   0  0  0  0  0  0  0  0  0  0  0  0
    2.5032    1.8421   -0.2505 C   0  0  0  0  0  0  0  0  0  0  0  0
    3.6585    0.9165   -0.0847 C   0  0  0  0  0  0  0  0  0  0  0  0
   -2.4240    1.8171    0.0111 C   0  0  0  0  0  0  0  0  0  0  0  0
   -2.3590    3.0309    0.5633 N   0  0  0  0  0  0  0  0  0  0  0  0
   -3.5091    3.6559    0.9129 C   0  0  0  0  0  0  0  0  0  0  0  0
   -3.4717    4.9276    1.4859 C   0  0  0  0  0  0  0  0  0  0  0  0
   -4.6715    5.5435    1.8283 C   0  0  0  0  0  0  0  0  0  0  0  0
   -5.8834    4.9172    1.6094 C   0  0  0  0  0  0  0  0  0  0  0  0
   -5.8917    3.6652    1.0441 C   0  0  0  0  0  0  0  0  0  0  0  0
   -4.7227    3.0121    0.6867 C   0  0  0  0  0  0  0  0  0  0  0  0
   -4.8208    1.7660    0.1238 C   0  0  0  0  0  0  0  0  0  0  0  0
   -6.1089    1.1203   -0.0729 C   0  0  0  0  0  0  0  0  0  0  0  0
   -6.8351    1.1149   -1.2355 C   0  0  0  0  0  0  0  0  0  0  0  0
   -8.0642    0.4587   -1.2372 C   0  0  0  0  0  0  0  0  0  0  0  0
   -8.5780   -0.1779   -0.1360 C   0  0  0  0  0  0  0  0  0  0  0  0
   -9.8393   -0.8743   -0.1192 C   0  0  0  0  0  0  0  0  0  0  0  0
  -10.0269   -1.9459    0.7073 C   0  0  0  0  0  0  0  0  0  0  0  0
  -11.2513   -2.6027    0.6912 C   0  0  0  0  0  0  0  0  0  0  0  0
  -12.2732   -2.1919   -0.1413 C   0  0  0  0  0  0  0  0  0  0  0  0
  -13.5071   -2.8589   -0.1516 O   0  0  0  0  0  0  0  0  0  0  0  0
  -13.7437   -3.9809    0.6993 C   0  0  0  0  0  0  0  0  0  0  0  0
  -12.0869   -1.1238   -0.9664 C   0  0  0  0  0  0  0  0  0  0  0  0
  -10.8555   -0.4703   -0.9435 C   0  0  0  0  0  0  0  0  0  0  0  0
   -7.8349   -0.1710    1.0492 C   0  0  0  0  0  0  0  0  0  0  0  0
   -6.6342    0.4713    1.0457 C   0  0  0  0  0  0  0  0  0  0  0  0
   -3.6191    1.1692   -0.2170 C   0  0  0  0  0  0  0  0  0  0  0  0
   -3.7027   -0.1860   -0.7987 C   0  0  0  0  0  0  0  0  0  0  0  0
   -2.4452   -0.7256   -1.3755 C   0  0  0  0  0  0  0  0  0  0  0  0
    6.6265   -1.2159    0.2352 C   0  0  0  0  0  0  0  0  0  0  0  0
    7.8262   -0.8618    0.7916 C   0  0  0  0  0  0  0  0  0  0  0  0
   10.6005   -0.3854    1.4708 C   0  0  0  0  0  0  0  0  0  0  0  0
   11.7860   -0.1236    2.1175 C   0  0  0  0  0  0  0  0  0  0  0  0
   14.9149    0.9707    4.1773 H   0  0  0  0  0  0  0  0  0  0  0  0
   13.6920   -0.3620    3.9090 H   0  0  0  0  0  0  0  0  0  0  0  0
   14.8473    0.1593    2.6065 H   0  0  0  0  0  0  0  0  0  0  0  0
   11.5932    3.2345    2.0787 H   0  0  0  0  0  0  0  0  0  0  0  0
    9.5262    2.7292    0.9485 H   0  0  0  0  0  0  0  0  0  0  0  0
    8.3908    1.9420   -0.9525 H   0  0  0  0  0  0  0  0  0  0  0  0
    6.2146    1.2873   -1.9606 H   0  0  0  0  0  0  0  0  0  0  0  0
    2.5299   -4.2754   -3.4364 H   0  0  0  0  0  0  0  0  0  0  0  0
    4.6554   -5.4188   -3.9765 H   0  0  0  0  0  0  0  0  0  0  0  0
    6.7653   -4.4626   -3.2435 H   0  0  0  0  0  0  0  0  0  0  0  0
    6.7849   -2.3671   -1.9673 H   0  0  0  0  0  0  0  0  0  0  0  0
   -0.0237   -1.6352   -1.8593 H   0  0  0  0  0  0  0  0  0  0  0  0
    0.0242    2.7902    0.3779 H   0  0  0  0  0  0  0  0  0  0  0  0
    2.3995    2.5521    0.6206 H   0  0  0  0  0  0  0  0  0  0  0  0
    2.7653    2.5153   -1.1121 H   0  0  0  0  0  0  0  0  0  0  0  0
    3.7350    0.6409    1.0286 H   0  0  0  0  0  0  0  0  0  0  0  0
    4.5840    1.5255   -0.2333 H   0  0  0  0  0  0  0  0  0  0  0  0
   -2.5128    5.3936    1.6452 H   0  0  0  0  0  0  0  0  0  0  0  0
   -4.5887    6.5303    2.2690 H   0  0  0  0  0  0  0  0  0  0  0  0
   -6.8145    5.4047    1.8775 H   0  0  0  0  0  0  0  0  0  0  0  0
   -6.8235    3.1434    0.8572 H   0  0  0  0  0  0  0  0  0  0  0  0
   -6.4180    1.6171   -2.0941 H   0  0  0  0  0  0  0  0  0  0  0  0
   -8.6108    0.4719   -2.1666 H   0  0  0  0  0  0  0  0  0  0  0  0
   -9.2385   -2.3069    1.3866 H   0  0  0  0  0  0  0  0  0  0  0  0
  -11.4458   -3.4572    1.3297 H   0  0  0  0  0  0  0  0  0  0  0  0
  -12.9882   -4.7594    0.5737 H   0  0  0  0  0  0  0  0  0  0  0  0
  -13.7342   -3.5593    1.7419 H   0  0  0  0  0  0  0  0  0  0  0  0
  -14.7385   -4.4005    0.4211 H   0  0  0  0  0  0  0  0  0  0  0  0
  -12.8877   -0.7774   -1.6425 H   0  0  0  0  0  0  0  0  0  0  0  0
  -10.7616    0.3720   -1.6263 H   0  0  0  0  0  0  0  0  0  0  0  0
   -8.1947   -0.6606    1.9616 H   0  0  0  0  0  0  0  0  0  0  0  0
   -6.0543    0.4689    1.9871 H   0  0  0  0  0  0  0  0  0  0  0  0
   -4.4693   -0.1276   -1.6248 H   0  0  0  0  0  0  0  0  0  0  0  0
   -4.1876   -0.9031   -0.0729 H   0  0  0  0  0  0  0  0  0  0  0  0
   -2.5068   -0.6480   -2.5045 H   0  0  0  0  0  0  0  0  0  0  0  0
   -2.3599   -1.8120   -1.1629 H   0  0  0  0  0  0  0  0  0  0  0  0
    6.1576   -2.1164    0.5976 H   0  0  0  0  0  0  0  0  0  0  0  0
    8.2791   -1.4631    1.5604 H   0  0  0  0  0  0  0  0  0  0  0  0
   10.3028   -1.3922    1.2899 H   0  0  0  0  0  0  0  0  0  0  0  0
   12.4358   -0.9238    2.4500 H   0  0  0  0  0  0  0  0  0  0  0  0
  1  2  1  0
  2  3  1  0
  3  4  2  0
  4  5  1  0
  5  6  2  0
  6  7  1  0
  7  8  2  0
  8  9  1  0
  9 10  2  0
 10 11  1  0
 11 12  2  0
 12 13  1  0
 13 14  2  0
 14 15  1  0
 15 16  2  0
 16 17  1  0
 17 18  2  0
 18 19  1  0
 19 20  2  0
 13 21  1  0
 21 22  2  0
 22 23  1  0
 23 24  2  0
 24 25  1  0
 25 26  2  0
 26 27  1  0
 27 28  1  0
 24 29  1  0
 29 30  2  0
 30 31  1  0
 31 32  2  0
 32 33  1  0
 33 34  2  0
 34 35  1  0
 35 36  2  0
 36 37  1  0
 37 38  1  0
 38 39  2  0
 39 40  1  0
 40 41  2  0
 41 42  1  0
 42 43  2  0
 43 44  1  0
 44 45  2  0
 45 46  1  0
 46 47  1  0
 45 48  1  0
 48 49  2  0
 41 50  1  0
 50 51  2  0
 37 52  2  0
 52 53  1  0
 53 54  1  0
 10 55  1  0
 55 56  2  0
  6 57  1  0
 57 58  2  0
 58  3  1  0
 56  7  1  0
 20 11  1  0
 26 21  1  0
 52 29  1  0
 28 12  1  0
 36 31  1  0
 51 38  1  0
 20 15  1  0
 54 23  1  0
 49 42  1  0
  1 59  1  0
  1 60  1  0
  1 61  1  0
  4 62  1  0
  5 63  1  0
  8 64  1  0
  9 65  1  0
 16 66  1  0
 17 67  1  0
 18 68  1  0
 19 69  1  0
 22 70  1  0
 25 71  1  0
 27 72  1  0
 27 73  1  0
 28 74  1  0
 28 75  1  0
 32 76  1  0
 33 77  1  0
 34 78  1  0
 35 79  1  0
 39 80  1  0
 40 81  1  0
 43 82  1  0
 44 83  1  0
 47 84  1  0
 47 85  1  0
 47 86  1  0
 48 87  1  0
 49 88  1  0
 50 89  1  0
 51 90  1  0
 53 91  1  0
 53 92  1  0
 54 93  1  0
 54 94  1  0
 55 95  1  0
 56 96  1  0
 57 97  1  0
 58 98  1  0
M  END
