
     RDKit          3D

 60 64  0  0  0  0  0  0  0  0999 V2000
    2.8454    0.2521   -1.5380 C   0  0  0  0  0  0  0  0  0  0  0  0
    3.6157    0.8669   -0.6939 C   0  0  0  0  0  0  0  0  0  0  0  0
    5.0695    0.9203   -0.9332 C   0  0  0  0  0  0  0  0  0  0  0  0
    5.6302    0.6445   -2.1750 C   0  0  0  0  0  0  0  0  0  0  0  0
    7.0020    0.6214   -2.3689 C   0  0  0  0  0  0  0  0  0  0  0  0
    7.8609    0.8733   -1.3307 C   0  0  0  0  0  0  0  0  0  0  0  0
    7.3359    1.1441   -0.1099 C   0  0  0  0  0  0  0  0  0  0  0  0
    5.9713    1.1688    0.0981 C   0  0  0  0  0  0  0  0  0  0  0  0
    3.1179    1.4213    0.5459 C   0  0  0  0  0  0  0  0  0  0  0  0
    2.0608    0.8427    1.2402 C   0  0  0  0  0  0  0  0  0  0  0  0
    1.5571    1.5019    2.3393 C   0  0  0  0  0  0  0  0  0  0  0  0
    2.0465    2.7025    2.7866 C   0  0  0  0  0  0  0  0  0  0  0  0
    3.1100    3.2542    2.0646 C   0  0  0  0  0  0  0  0  0  0  0  0
    3.6399    2.6459    0.9760 C   0  0  0  0  0  0  0  0  0  0  0  0
    1.3841    0.1326   -1.4352 C   0  0  0  0  0  0  0  0  0  0  0  0
    0.6281    1.2663   -1.2015 C   0  0  0  0  0  0  0  0  0  0  0  0
   -0.7306    1.1877   -1.0937 C   0  0  0  0  0  0  0  0  0  0  0  0
   -1.4282   -0.0032   -1.2081 C   0  0  0  0  0  0  0  0  0  0  0  0
   -2.8780   -0.0164   -1.1232 C   0  0  0  0  0  0  0  0  0  0  0  0
   -3.6343   -0.7945   -0.3971 C   0  0  0  0  0  0  0  0  0  0  0  0
   -5.0742   -0.6298   -0.4874 C   0  0  0  0  0  0  0  0  0  0  0  0
   -5.7121    0.0119   -1.5278 C   0  0  0  0  0  0  0  0  0  0  0  0
   -7.0741    0.2091   -1.4915 C   0  0  0  0  0  0  0  0  0  0  0  0
   -7.8667   -0.2073   -0.4480 C   0  0  0  0  0  0  0  0  0  0  0  0
   -7.2413   -0.8480    0.5957 C   0  0  0  0  0  0  0  0  0  0  0  0
   -5.8638   -1.0471    0.5598 C   0  0  0  0  0  0  0  0  0  0  0  0
   -3.0752   -1.7429    0.5460 C   0  0  0  0  0  0  0  0  0  0  0  0
   -3.6977   -2.9534    0.8876 C   0  0  0  0  0  0  0  0  0  0  0  0
   -3.2219   -3.8092    1.8393 C   0  0  0  0  0  0  0  0  0  0  0  0
   -2.0757   -3.5314    2.5366 C   0  0  0  0  0  0  0  0  0  0  0  0
   -1.4298   -2.3669    2.2447 C   0  0  0  0  0  0  0  0  0  0  0  0
   -1.9101   -1.4960    1.2818 C   0  0  0  0  0  0  0  0  0  0  0  0
   -0.6601   -1.1352   -1.4437 C   0  0  0  0  0  0  0  0  0  0  0  0
    0.7272   -1.0672   -1.5554 C   0  0  0  0  0  0  0  0  0  0  0  0
    3.3366   -0.2355   -2.4066 H   0  0  0  0  0  0  0  0  0  0  0  0
    4.9952    0.4497   -3.0340 H   0  0  0  0  0  0  0  0  0  0  0  0
    7.4257    0.4034   -3.3476 H   0  0  0  0  0  0  0  0  0  0  0  0
    8.9365    0.8426   -1.5343 H   0  0  0  0  0  0  0  0  0  0  0  0
    8.0066    1.3478    0.7258 H   0  0  0  0  0  0  0  0  0  0  0  0
    5.6288    1.3458    1.0890 H   0  0  0  0  0  0  0  0  0  0  0  0
    1.6409   -0.1337    0.9641 H   0  0  0  0  0  0  0  0  0  0  0  0
    0.7323    1.0140    2.8497 H   0  0  0  0  0  0  0  0  0  0  0  0
    1.6360    3.1974    3.6475 H   0  0  0  0  0  0  0  0  0  0  0  0
    3.5156    4.1934    2.3905 H   0  0  0  0  0  0  0  0  0  0  0  0
    4.4528    3.0852    0.3797 H   0  0  0  0  0  0  0  0  0  0  0  0
    1.1505    2.2036   -1.1148 H   0  0  0  0  0  0  0  0  0  0  0  0
   -1.3319    2.0747   -0.9101 H   0  0  0  0  0  0  0  0  0  0  0  0
   -3.3829    0.7419   -1.7498 H   0  0  0  0  0  0  0  0  0  0  0  0
   -5.1275    0.3492   -2.3883 H   0  0  0  0  0  0  0  0  0  0  0  0
   -7.6025    0.7204   -2.3146 H   0  0  0  0  0  0  0  0  0  0  0  0
   -8.9367   -0.0693   -0.3879 H   0  0  0  0  0  0  0  0  0  0  0  0
   -7.8376   -1.1832    1.4259 H   0  0  0  0  0  0  0  0  0  0  0  0
   -5.4832   -1.5261    1.4596 H   0  0  0  0  0  0  0  0  0  0  0  0
   -4.6005   -3.2319    0.3285 H   0  0  0  0  0  0  0  0  0  0  0  0
   -3.7455   -4.7240    2.0577 H   0  0  0  0  0  0  0  0  0  0  0  0
   -1.6728   -4.1922    3.2957 H   0  0  0  0  0  0  0  0  0  0  0  0
   -0.5096   -2.0797    2.7595 H   0  0  0  0  0  0  0  0  0  0  0  0
   -1.3960   -0.5654    1.1130 H   0  0  0  0  0  0  0  0  0  0  0  0
   -1.1748   -2.0793   -1.5385 H   0  0  0  0  0  0  0  0  0  0  0  0
    1.3147   -1.9679   -1.7394 H   0  0  0  0  0  0  0  0  0  0  0  0
  1  2  2  3
  2  3  1  0
  3  4  2  0
  4  5  1  0
  5  6  2  0
  6  7  1  0
  7  8  2  0
  2  9  1  0
  9 10  2  0
 10 11  1  0
 11 12  2  0
 12 13  1  0
 13 14  2  0
  1 15  1  0
 15 16  2  0
 16 17  1  0
 17 18  2  0
 18 19  1  0
 19 20  2  3
 20 21  1  0
 21 22  2  0
 22 23  1  0
 23 24  2  0
 24 25  1  0
 25 26  2  0
 20 27  1  0
 27 28  2  0
 28 29  1  0
 29 30  2  0
 30 31  1  0
 31 32  2  0
 18 33  1  0
 33 34  2  0
  8  3  1  0
 14  9  1  0
 34 15  1  0
 26 21  1  0
 32 27  1  0
  1 35  1  0
  4 36  1  0
  5 37  1  0
  6 38  1  0
  7 39  1  0
  8 40  1  0
 10 41  1  0
 11 42  1  0
 12 43  1  0
 13 44  1  0
 14 45  1  0
 16 46  1  0
 17 47  1  0
 19 48  1  0
 22 49  1  0
 23 50  1  0
 24 51  1  0
 25 52  1  0
 26 53  1  0
 28 54  1  0
 29 55  1  0
 30 56  1  0
 31 57  1  0
 32 58  1  0
 33 59  1  0
 34 60  1  0
M  END
