
     RDKit          3D

 31 33  0  0  0  0  0  0  0  0999 V2000
   -1.6756   -1.2555    3.8140 N   0  0  0  0  0  0  0  0  0  0  0  0
   -1.0519   -0.9507    2.8831 C   0  0  0  0  0  0  0  0  0  0  0  0
   -0.2627   -0.5910    1.7357 C   0  0  0  0  0  0  0  0  0  0  0  0
    1.0732   -0.6180    1.5970 N   0  0  0  0  0  0  0  0  0  0  0  0
    1.4430   -0.2154    0.3953 N   0  0  0  0  0  0  0  0  0  0  0  0
    2.7654   -0.1005   -0.1437 C   0  0  0  0  0  0  0  0  0  0  0  0
    3.1964    1.0441   -0.7846 C   0  0  0  0  0  0  0  0  0  0  0  0
    4.4776    1.1320   -1.2971 C   0  0  0  0  0  0  0  0  0  0  0  0
    5.3746    0.0899   -1.1919 C   0  0  0  0  0  0  0  0  0  0  0  0
    4.9499   -1.0566   -0.5525 C   0  0  0  0  0  0  0  0  0  0  0  0
    3.6656   -1.1419   -0.0401 C   0  0  0  0  0  0  0  0  0  0  0  0
    3.0953   -2.5929    0.7813 Cl  0  0  0  0  0  0  0  0  0  0  0  0
    0.3444    0.0745   -0.2496 N   0  0  0  0  0  0  0  0  0  0  0  0
   -0.7508   -0.1354    0.5221 C   0  0  0  0  0  0  0  0  0  0  0  0
   -2.1070    0.0698    0.1590 N   0  0  0  0  0  0  0  0  0  0  0  0
   -2.5493    0.5510   -1.1358 C   0  0  0  0  0  0  0  0  0  0  0  0
   -4.0412    0.5149   -1.1178 C   0  0  0  0  0  0  0  0  0  0  0  0
   -4.4356    0.4269    0.3429 C   0  0  0  0  0  0  0  0  0  0  0  0
   -3.2408   -0.1671    1.0153 C   0  0  0  0  0  0  0  0  0  0  0  0
    2.4959    1.8737   -0.8734 H   0  0  0  0  0  0  0  0  0  0  0  0
    4.8088    2.0246   -1.7951 H   0  0  0  0  0  0  0  0  0  0  0  0
    6.3817    0.1682   -1.5986 H   0  0  0  0  0  0  0  0  0  0  0  0
    5.6268   -1.9048   -0.4473 H   0  0  0  0  0  0  0  0  0  0  0  0
   -2.1581   -0.1567   -1.8931 H   0  0  0  0  0  0  0  0  0  0  0  0
   -2.1229    1.5605   -1.2733 H   0  0  0  0  0  0  0  0  0  0  0  0
   -4.4034   -0.3751   -1.6601 H   0  0  0  0  0  0  0  0  0  0  0  0
   -4.4776    1.4439   -1.5576 H   0  0  0  0  0  0  0  0  0  0  0  0
   -5.3346   -0.2215    0.3950 H   0  0  0  0  0  0  0  0  0  0  0  0
   -4.6440    1.4391    0.7699 H   0  0  0  0  0  0  0  0  0  0  0  0
   -3.1247    0.3197    2.0092 H   0  0  0  0  0  0  0  0  0  0  0  0
   -3.3184   -1.2498    1.1917 H   0  0  0  0  0  0  0  0  0  0  0  0
  1  2  3  0
  2  3  1  0
  3  4  2  0
  4  5  1  0
  5  6  1  0
  6  7  2  0
  7  8  1  0
  8  9  2  0
  9 10  1  0
 10 11  2  0
 11 12  1  0
  5 13  1  0
 13 14  2  0
 14 15  1  0
 15 16  1  0
 16 17  1  0
 17 18  1  0
 18 19  1  0
 14  3  1  0
 19 15  1  0
 11  6  1  0
  7 20  1  0
  8 21  1  0
  9 22  1  0
 10 23  1  0
 16 24  1  0
 16 25  1  0
 17 26  1  0
 17 27  1  0
 18 28  1  0
 18 29  1  0
 19 30  1  0
 19 31  1  0
M  END
