
     RDKit          3D

 37 40  0  0  0  0  0  0  0  0999 V2000
    6.1064   -0.9797    0.0803 C   0  0  0  0  0  0  0  0  0  0  0  0
    4.7354   -0.3830    0.0397 C   0  0  0  0  0  0  0  0  0  0  0  0
    4.3898    0.5087   -0.9547 C   0  0  0  0  0  0  0  0  0  0  0  0
    3.1054    1.0630   -0.9865 C   0  0  0  0  0  0  0  0  0  0  0  0
    2.1531    0.7435   -0.0403 C   0  0  0  0  0  0  0  0  0  0  0  0
    0.8382    1.3007   -0.0591 N   0  0  0  0  0  0  0  0  0  0  0  0
   -0.2062    0.5577   -0.0707 C   0  0  0  0  0  0  0  0  0  0  0  0
   -0.0934   -0.8604   -0.0653 N   0  0  0  0  0  0  0  0  0  0  0  0
   -1.1494   -1.6315   -0.0769 C   0  0  0  0  0  0  0  0  0  0  0  0
   -1.0365   -3.0435   -0.0715 N   0  0  0  0  0  0  0  0  0  0  0  0
   -2.4549   -0.9749   -0.0959 C   0  0  0  0  0  0  0  0  0  0  0  0
   -3.5936   -1.7753   -0.1086 C   0  0  0  0  0  0  0  0  0  0  0  0
   -4.8365   -1.1758   -0.1267 C   0  0  0  0  0  0  0  0  0  0  0  0
   -4.9797    0.1891   -0.1324 C   0  0  0  0  0  0  0  0  0  0  0  0
   -3.8577    1.0043   -0.1200 C   0  0  0  0  0  0  0  0  0  0  0  0
   -3.9991    2.3764   -0.1257 C   0  0  0  0  0  0  0  0  0  0  0  0
   -2.8906    3.1984   -0.1135 C   0  0  0  0  0  0  0  0  0  0  0  0
   -1.6544    2.5853   -0.0955 C   0  0  0  0  0  0  0  0  0  0  0  0
   -1.5082    1.2199   -0.0897 C   0  0  0  0  0  0  0  0  0  0  0  0
   -2.6164    0.3935   -0.1019 C   0  0  0  0  0  0  0  0  0  0  0  0
    2.5088   -0.1492    0.9500 C   0  0  0  0  0  0  0  0  0  0  0  0
    3.7792   -0.6949    0.9781 C   0  0  0  0  0  0  0  0  0  0  0  0
    6.4645   -1.0492    1.1394 H   0  0  0  0  0  0  0  0  0  0  0  0
    6.8267   -0.3654   -0.4576 H   0  0  0  0  0  0  0  0  0  0  0  0
    6.0540   -1.9933   -0.3805 H   0  0  0  0  0  0  0  0  0  0  0  0
    5.1420    0.7491   -1.6862 H   0  0  0  0  0  0  0  0  0  0  0  0
    2.8476    1.7566   -1.7659 H   0  0  0  0  0  0  0  0  0  0  0  0
   -1.7111   -3.6431    0.4399 H   0  0  0  0  0  0  0  0  0  0  0  0
   -0.2638   -3.4957   -0.5886 H   0  0  0  0  0  0  0  0  0  0  0  0
   -3.5049   -2.8373   -0.1045 H   0  0  0  0  0  0  0  0  0  0  0  0
   -5.7479   -1.7770   -0.1369 H   0  0  0  0  0  0  0  0  0  0  0  0
   -5.9371    0.6845   -0.1464 H   0  0  0  0  0  0  0  0  0  0  0  0
   -4.9905    2.8083   -0.1399 H   0  0  0  0  0  0  0  0  0  0  0  0
   -2.9982    4.2844   -0.1179 H   0  0  0  0  0  0  0  0  0  0  0  0
   -0.7643    3.2226   -0.0856 H   0  0  0  0  0  0  0  0  0  0  0  0
    1.7737   -0.4175    1.7091 H   0  0  0  0  0  0  0  0  0  0  0  0
    4.0694   -1.3993    1.7541 H   0  0  0  0  0  0  0  0  0  0  0  0
  1  2  1  0
  2  3  2  0
  3  4  1  0
  4  5  2  0
  5  6  1  0
  6  7  2  0
  7  8  1  0
  8  9  2  0
  9 10  1  0
  9 11  1  0
 11 12  2  0
 12 13  1  0
 13 14  2  0
 14 15  1  0
 15 16  2  0
 16 17  1  0
 17 18  2  0
 18 19  1  0
 19 20  2  0
  5 21  1  0
 21 22  2  0
 22  2  1  0
 19  7  1  0
 20 11  1  0
 20 15  1  0
  1 23  1  0
  1 24  1  0
  1 25  1  0
  3 26  1  0
  4 27  1  0
 10 28  1  0
 10 29  1  0
 12 30  1  0
 13 31  1  0
 14 32  1  0
 16 33  1  0
 17 34  1  0
 18 35  1  0
 21 36  1  0
 22 37  1  0
M  END
