
     RDKit          3D

 38 40  0  0  0  0  0  0  0  0999 V2000
    8.4329   -0.0141   -0.1189 C   0  0  0  0  0  0  0  0  0  0  0  0
    7.0419   -0.1058    0.1099 O   0  0  0  0  0  0  0  0  0  0  0  0
    6.1338    0.3257   -0.8340 C   0  0  0  0  0  0  0  0  0  0  0  0
    6.6191    0.8019   -1.9023 O   0  0  0  0  0  0  0  0  0  0  0  0
    4.7072    0.2688   -0.6821 C   0  0  0  0  0  0  0  0  0  0  0  0
    4.1462   -0.2438    0.4687 C   0  0  0  0  0  0  0  0  0  0  0  0
    2.7725   -0.3124    0.6458 C   0  0  0  0  0  0  0  0  0  0  0  0
    1.9408    0.1371   -0.3399 C   0  0  0  0  0  0  0  0  0  0  0  0
    0.4644    0.0835   -0.1944 C   0  0  0  0  0  0  0  0  0  0  0  0
   -0.2594   -0.3566    0.7980 N   0  0  0  0  0  0  0  0  0  0  0  0
   -1.5562   -0.3219    0.7438 C   0  0  0  0  0  0  0  0  0  0  0  0
   -2.4349   -0.7655    1.7465 C   0  0  0  0  0  0  0  0  0  0  0  0
   -3.7880   -0.6678    1.5531 C   0  0  0  0  0  0  0  0  0  0  0  0
   -4.3926   -0.1542    0.4209 C   0  0  0  0  0  0  0  0  0  0  0  0
   -5.7989   -0.0770    0.2740 N   0  0  0  0  0  0  0  0  0  0  0  0
   -6.5748   -1.1511   -0.3075 C   0  0  0  0  0  0  0  0  0  0  0  0
   -6.5055    1.1059    0.7129 C   0  0  0  0  0  0  0  0  0  0  0  0
   -3.5141    0.2768   -0.5539 C   0  0  0  0  0  0  0  0  0  0  0  0
   -2.1330    0.1900   -0.3854 C   0  0  0  0  0  0  0  0  0  0  0  0
   -0.7431    0.5910   -1.3024 S   0  0  0  0  0  0  0  0  0  0  0  0
    2.4978    0.6495   -1.4902 C   0  0  0  0  0  0  0  0  0  0  0  0
    3.8551    0.7167   -1.6638 C   0  0  0  0  0  0  0  0  0  0  0  0
    8.9072   -1.0298   -0.0841 H   0  0  0  0  0  0  0  0  0  0  0  0
    8.8596    0.5215    0.7715 H   0  0  0  0  0  0  0  0  0  0  0  0
    8.6893    0.5582   -1.0119 H   0  0  0  0  0  0  0  0  0  0  0  0
    4.8117   -0.5989    1.2472 H   0  0  0  0  0  0  0  0  0  0  0  0
    2.3291   -0.7146    1.5488 H   0  0  0  0  0  0  0  0  0  0  0  0
   -2.0682   -1.1900    2.6848 H   0  0  0  0  0  0  0  0  0  0  0  0
   -4.4525   -1.0267    2.3636 H   0  0  0  0  0  0  0  0  0  0  0  0
   -7.5506   -1.1703    0.1900 H   0  0  0  0  0  0  0  0  0  0  0  0
   -6.7622   -0.9886   -1.3922 H   0  0  0  0  0  0  0  0  0  0  0  0
   -6.0792   -2.1429   -0.1572 H   0  0  0  0  0  0  0  0  0  0  0  0
   -6.0975    1.3719    1.7066 H   0  0  0  0  0  0  0  0  0  0  0  0
   -6.1856    1.9443    0.0277 H   0  0  0  0  0  0  0  0  0  0  0  0
   -7.5904    0.9590    0.7114 H   0  0  0  0  0  0  0  0  0  0  0  0
   -3.8721    0.6903   -1.4680 H   0  0  0  0  0  0  0  0  0  0  0  0
    1.8377    1.0033   -2.2658 H   0  0  0  0  0  0  0  0  0  0  0  0
    4.3128    1.1208   -2.5712 H   0  0  0  0  0  0  0  0  0  0  0  0
  1  2  1  0
  2  3  1  0
  3  4  2  0
  3  5  1  0
  5  6  2  0
  6  7  1  0
  7  8  2  0
  8  9  1  0
  9 10  2  0
 10 11  1  0
 11 12  2  0
 12 13  1  0
 13 14  2  0
 14 15  1  0
 15 16  1  0
 15 17  1  0
 14 18  1  0
 18 19  2  0
 19 20  1  0
  8 21  1  0
 21 22  2  0
 22  5  1  0
 20  9  1  0
 19 11  1  0
  1 23  1  0
  1 24  1  0
  1 25  1  0
  6 26  1  0
  7 27  1  0
 12 28  1  0
 13 29  1  0
 16 30  1  0
 16 31  1  0
 16 32  1  0
 17 33  1  0
 17 34  1  0
 17 35  1  0
 18 36  1  0
 21 37  1  0
 22 38  1  0
M  END
