
     RDKit          3D

125133  0  0  0  0  0  0  0  0999 V2000
    0.3442   -2.0054   -0.8044 C   0  0  0  0  0  0  0  0  0  0  0  0
    0.5463   -0.7939   -1.7254 C   0  0  0  0  0  0  0  0  0  0  0  0
    0.3543    0.4982   -0.9324 C   0  0  0  0  0  0  0  0  0  0  0  0
    0.5596    1.6723   -1.8280 C   0  0  0  0  0  0  0  0  0  0  0  0
   -0.3538    1.7560   -3.0043 C   0  0  0  0  0  0  0  0  0  0  0  0
   -0.9666    0.4183   -0.2843 C   0  0  0  0  0  0  0  0  0  0  0  0
   -2.2781    0.4311   -0.8067 C   0  0  0  0  0  0  0  0  0  0  0  0
   -3.3417    0.3259    0.0468 C   0  0  0  0  0  0  0  0  0  0  0  0
   -4.7048    0.4275   -0.4194 C   0  0  0  0  0  0  0  0  0  0  0  0
   -5.1112    1.2254   -1.4695 C   0  0  0  0  0  0  0  0  0  0  0  0
   -6.4423    1.3317   -1.8080 C   0  0  0  0  0  0  0  0  0  0  0  0
   -7.4180    0.6498   -1.1161 C   0  0  0  0  0  0  0  0  0  0  0  0
   -7.0161   -0.1448   -0.0818 C   0  0  0  0  0  0  0  0  0  0  0  0
   -5.6888   -0.2637    0.2725 C   0  0  0  0  0  0  0  0  0  0  0  0
   -8.1999   -0.8339    0.5061 C   0  0  0  0  0  0  0  0  0  0  0  0
   -8.1429   -0.7306    1.9888 C   0  0  0  0  0  0  0  0  0  0  0  0
   -9.2836   -1.3931    2.7125 C   0  0  0  0  0  0  0  0  0  0  0  0
   -8.0748   -2.2908    0.0685 C   0  0  0  0  0  0  0  0  0  0  0  0
   -8.0841   -2.3842   -1.4462 C   0  0  0  0  0  0  0  0  0  0  0  0
   -9.3442   -0.1729   -0.1454 C   0  0  0  0  0  0  0  0  0  0  0  0
  -10.7143   -0.2081    0.0158 C   0  0  0  0  0  0  0  0  0  0  0  0
  -11.5996    0.5109   -0.7795 C   0  0  0  0  0  0  0  0  0  0  0  0
  -13.0715    0.4650   -0.5202 C   0  0  0  0  0  0  0  0  0  0  0  0
  -13.7606   -0.1070   -1.7219 C   0  0  0  0  0  0  0  0  0  0  0  0
  -13.5789    1.8739   -0.2062 C   0  0  0  0  0  0  0  0  0  0  0  0
  -13.3381   -0.3440    0.7316 C   0  0  0  0  0  0  0  0  0  0  0  0
  -11.0925    1.3091   -1.7939 C   0  0  0  0  0  0  0  0  0  0  0  0
   -9.7361    1.3749   -1.9888 C   0  0  0  0  0  0  0  0  0  0  0  0
   -8.8934    0.6512   -1.1795 C   0  0  0  0  0  0  0  0  0  0  0  0
   -3.1483    0.2042    1.4047 C   0  0  0  0  0  0  0  0  0  0  0  0
   -1.8943    0.1873    1.9612 C   0  0  0  0  0  0  0  0  0  0  0  0
   -0.8329    0.2985    1.0805 C   0  0  0  0  0  0  0  0  0  0  0  0
    0.6088    0.3689    1.3701 C   0  0  0  0  0  0  0  0  0  0  0  0
    1.2891    0.3454    2.5795 C   0  0  0  0  0  0  0  0  0  0  0  0
    2.6595    0.4741    2.6218 C   0  0  0  0  0  0  0  0  0  0  0  0
    3.3644    0.6273    1.4536 C   0  0  0  0  0  0  0  0  0  0  0  0
    4.7988    0.7611    1.5716 C   0  0  0  0  0  0  0  0  0  0  0  0
    5.3756    1.3918    2.6677 C   0  0  0  0  0  0  0  0  0  0  0  0
    6.7409    1.4587    2.7770 C   0  0  0  0  0  0  0  0  0  0  0  0
    7.5748    0.9107    1.8201 C   0  0  0  0  0  0  0  0  0  0  0  0
    6.9747    0.2963    0.7537 C   0  0  0  0  0  0  0  0  0  0  0  0
    5.5911    0.2136    0.6142 C   0  0  0  0  0  0  0  0  0  0  0  0
    8.0312   -0.2582   -0.1558 C   0  0  0  0  0  0  0  0  0  0  0  0
    7.8024   -1.7553   -0.1651 C   0  0  0  0  0  0  0  0  0  0  0  0
    8.7556   -2.5228   -1.0091 C   0  0  0  0  0  0  0  0  0  0  0  0
    7.8271    0.3879   -1.5037 C   0  0  0  0  0  0  0  0  0  0  0  0
    7.9931    1.8941   -1.2659 C   0  0  0  0  0  0  0  0  0  0  0  0
    9.2802    0.1355    0.4861 C   0  0  0  0  0  0  0  0  0  0  0  0
   10.5904   -0.0876    0.0801 C   0  0  0  0  0  0  0  0  0  0  0  0
   11.6170    0.3700    0.8476 C   0  0  0  0  0  0  0  0  0  0  0  0
   13.0383    0.1382    0.4181 C   0  0  0  0  0  0  0  0  0  0  0  0
   13.0442   -0.9550   -0.6555 C   0  0  0  0  0  0  0  0  0  0  0  0
   13.6258    1.3758   -0.2249 C   0  0  0  0  0  0  0  0  0  0  0  0
   13.9021   -0.3381    1.5503 C   0  0  0  0  0  0  0  0  0  0  0  0
   11.3721    1.0585    2.0354 C   0  0  0  0  0  0  0  0  0  0  0  0
   10.0696    1.2756    2.4305 C   0  0  0  0  0  0  0  0  0  0  0  0
    9.0236    0.8141    1.6552 C   0  0  0  0  0  0  0  0  0  0  0  0
    2.7172    0.6522    0.2663 C   0  0  0  0  0  0  0  0  0  0  0  0
    1.3141    0.5217    0.2143 C   0  0  0  0  0  0  0  0  0  0  0  0
   -0.6805   -2.0355   -0.3823 H   0  0  0  0  0  0  0  0  0  0  0  0
    0.4244   -2.9048   -1.4802 H   0  0  0  0  0  0  0  0  0  0  0  0
    1.1377   -2.0507   -0.0254 H   0  0  0  0  0  0  0  0  0  0  0  0
    1.5375   -0.8942   -2.1729 H   0  0  0  0  0  0  0  0  0  0  0  0
   -0.2114   -0.9115   -2.5192 H   0  0  0  0  0  0  0  0  0  0  0  0
    1.6093    1.5902   -2.2462 H   0  0  0  0  0  0  0  0  0  0  0  0
    0.5010    2.5912   -1.1774 H   0  0  0  0  0  0  0  0  0  0  0  0
   -0.6549    0.8021   -3.4421 H   0  0  0  0  0  0  0  0  0  0  0  0
   -1.2261    2.4298   -2.7598 H   0  0  0  0  0  0  0  0  0  0  0  0
    0.1439    2.3118   -3.8714 H   0  0  0  0  0  0  0  0  0  0  0  0
   -2.3908    0.5232   -1.8724 H   0  0  0  0  0  0  0  0  0  0  0  0
   -4.3794    1.7622   -2.0254 H   0  0  0  0  0  0  0  0  0  0  0  0
   -6.7902    1.9633   -2.6435 H   0  0  0  0  0  0  0  0  0  0  0  0
   -5.4002   -0.9087    1.0927 H   0  0  0  0  0  0  0  0  0  0  0  0
   -8.0726    0.3646    2.2801 H   0  0  0  0  0  0  0  0  0  0  0  0
   -7.2146   -1.2365    2.3372 H   0  0  0  0  0  0  0  0  0  0  0  0
   -8.9170   -1.9113    3.6534 H   0  0  0  0  0  0  0  0  0  0  0  0
   -9.7233   -2.2085    2.1164 H   0  0  0  0  0  0  0  0  0  0  0  0
  -10.0331   -0.6695    3.1141 H   0  0  0  0  0  0  0  0  0  0  0  0
   -8.8358   -2.9488    0.4617 H   0  0  0  0  0  0  0  0  0  0  0  0
   -7.0699   -2.6286    0.3941 H   0  0  0  0  0  0  0  0  0  0  0  0
   -8.1846   -3.4327   -1.7803 H   0  0  0  0  0  0  0  0  0  0  0  0
   -7.1678   -1.9721   -1.8949 H   0  0  0  0  0  0  0  0  0  0  0  0
   -8.9318   -1.7882   -1.8736 H   0  0  0  0  0  0  0  0  0  0  0  0
  -11.1282   -0.8211    0.7917 H   0  0  0  0  0  0  0  0  0  0  0  0
  -13.0481   -0.6403   -2.3610 H   0  0  0  0  0  0  0  0  0  0  0  0
  -14.5668   -0.8482   -1.4298 H   0  0  0  0  0  0  0  0  0  0  0  0
  -14.2241    0.7526   -2.2725 H   0  0  0  0  0  0  0  0  0  0  0  0
  -14.5873    1.9509   -0.6525 H   0  0  0  0  0  0  0  0  0  0  0  0
  -13.6470    2.0620    0.8825 H   0  0  0  0  0  0  0  0  0  0  0  0
  -12.9065    2.6521   -0.6114 H   0  0  0  0  0  0  0  0  0  0  0  0
  -13.0925   -1.4014    0.6411 H   0  0  0  0  0  0  0  0  0  0  0  0
  -12.7624    0.0890    1.5913 H   0  0  0  0  0  0  0  0  0  0  0  0
  -14.4103   -0.2468    1.0098 H   0  0  0  0  0  0  0  0  0  0  0  0
  -11.8138    1.8671   -2.4097 H   0  0  0  0  0  0  0  0  0  0  0  0
   -9.3183    2.0001   -2.7859 H   0  0  0  0  0  0  0  0  0  0  0  0
   -4.0063    0.1281    2.0471 H   0  0  0  0  0  0  0  0  0  0  0  0
   -1.7345    0.0957    3.0261 H   0  0  0  0  0  0  0  0  0  0  0  0
    0.6999    0.2241    3.4774 H   0  0  0  0  0  0  0  0  0  0  0  0
    3.1603    0.4531    3.5967 H   0  0  0  0  0  0  0  0  0  0  0  0
    4.7170    1.8141    3.4061 H   0  0  0  0  0  0  0  0  0  0  0  0
    7.2226    1.9553    3.6245 H   0  0  0  0  0  0  0  0  0  0  0  0
    5.1560   -0.2805   -0.2470 H   0  0  0  0  0  0  0  0  0  0  0  0
    6.7482   -1.9144   -0.5279 H   0  0  0  0  0  0  0  0  0  0  0  0
    7.7870   -2.0621    0.9012 H   0  0  0  0  0  0  0  0  0  0  0  0
    9.0034   -2.0008   -1.9290 H   0  0  0  0  0  0  0  0  0  0  0  0
    8.3361   -3.5589   -1.1731 H   0  0  0  0  0  0  0  0  0  0  0  0
    9.6692   -2.7186   -0.3737 H   0  0  0  0  0  0  0  0  0  0  0  0
    6.7865    0.2477   -1.8624 H   0  0  0  0  0  0  0  0  0  0  0  0
    8.5244    0.0484   -2.2714 H   0  0  0  0  0  0  0  0  0  0  0  0
    7.1139    2.2812   -0.6977 H   0  0  0  0  0  0  0  0  0  0  0  0
    8.9258    2.0281   -0.6510 H   0  0  0  0  0  0  0  0  0  0  0  0
    8.1431    2.4000   -2.2288 H   0  0  0  0  0  0  0  0  0  0  0  0
   10.7986   -0.6258   -0.8477 H   0  0  0  0  0  0  0  0  0  0  0  0
   12.7639   -0.6071   -1.6415 H   0  0  0  0  0  0  0  0  0  0  0  0
   12.3908   -1.8079   -0.3473 H   0  0  0  0  0  0  0  0  0  0  0  0
   14.0900   -1.3573   -0.6484 H   0  0  0  0  0  0  0  0  0  0  0  0
   14.3997    1.1175   -1.0016 H   0  0  0  0  0  0  0  0  0  0  0  0
   12.7979    1.9314   -0.7307 H   0  0  0  0  0  0  0  0  0  0  0  0
   14.1055    2.0595    0.5172 H   0  0  0  0  0  0  0  0  0  0  0  0
   14.4990    0.4848    2.0136 H   0  0  0  0  0  0  0  0  0  0  0  0
   14.6115   -1.1298    1.2280 H   0  0  0  0  0  0  0  0  0  0  0  0
   13.2688   -0.7527    2.3814 H   0  0  0  0  0  0  0  0  0  0  0  0
   12.2035    1.3991    2.6196 H   0  0  0  0  0  0  0  0  0  0  0  0
    9.8847    1.8049    3.3487 H   0  0  0  0  0  0  0  0  0  0  0  0
    3.2941    0.7781   -0.6453 H   0  0  0  0  0  0  0  0  0  0  0  0
  1  2  1  0
  2  3  1  0
  3  4  1  0
  4  5  1  0
  3  6  1  0
  6  7  2  0
  7  8  1  0
  8  9  1  0
  9 10  2  0
 10 11  1  0
 11 12  2  0
 12 13  1  0
 13 14  2  0
 13 15  1  0
 15 16  1  0
 16 17  1  0
 15 18  1  0
 18 19  1  0
 15 20  1  0
 20 21  2  0
 21 22  1  0
 22 23  1  0
 23 24  1  0
 23 25  1  0
 23 26  1  0
 22 27  2  0
 27 28  1  0
 28 29  2  0
  8 30  2  0
 30 31  1  0
 31 32  2  0
 32 33  1  0
 33 34  2  0
 34 35  1  0
 35 36  2  0
 36 37  1  0
 37 38  2  0
 38 39  1  0
 39 40  2  0
 40 41  1  0
 41 42  2  0
 41 43  1  0
 43 44  1  0
 44 45  1  0
 43 46  1  0
 46 47  1  0
 43 48  1  0
 48 49  2  0
 49 50  1  0
 50 51  1  0
 51 52  1  0
 51 53  1  0
 51 54  1  0
 50 55  2  0
 55 56  1  0
 56 57  2  0
 36 58  1  0
 58 59  2  0
 59  3  1  0
 32  6  1  0
 59 33  1  0
 14  9  1  0
 29 20  1  0
 42 37  1  0
 57 48  1  0
 29 12  1  0
 57 40  1  0
  1 60  1  0
  1 61  1  0
  1 62  1  0
  2 63  1  0
  2 64  1  0
  4 65  1  0
  4 66  1  0
  5 67  1  0
  5 68  1  0
  5 69  1  0
  7 70  1  0
 10 71  1  0
 11 72  1  0
 14 73  1  0
 16 74  1  0
 16 75  1  0
 17 76  1  0
 17 77  1  0
 17 78  1  0
 18 79  1  0
 18 80  1  0
 19 81  1  0
 19 82  1  0
 19 83  1  0
 21 84  1  0
 24 85  1  0
 24 86  1  0
 24 87  1  0
 25 88  1  0
 25 89  1  0
 25 90  1  0
 26 91  1  0
 26 92  1  0
 26 93  1  0
 27 94  1  0
 28 95  1  0
 30 96  1  0
 31 97  1  0
 34 98  1  0
 35 99  1  0
 38100  1  0
 39101  1  0
 42102  1  0
 44103  1  0
 44104  1  0
 45105  1  0
 45106  1  0
 45107  1  0
 46108  1  0
 46109  1  0
 47110  1  0
 47111  1  0
 47112  1  0
 49113  1  0
 52114  1  0
 52115  1  0
 52116  1  0
 53117  1  0
 53118  1  0
 53119  1  0
 54120  1  0
 54121  1  0
 54122  1  0
 55123  1  0
 56124  1  0
 58125  1  0
M  END
