
     RDKit          3D

 46 50  0  0  0  0  0  0  0  0999 V2000
   -2.3231   -2.7358   -2.6231 C   0  0  0  0  0  0  0  0  0  0  0  0
   -2.2124   -1.8286   -1.4414 N   0  0  0  0  0  0  0  0  0  0  0  0
   -1.4125   -0.8020   -1.3306 C   0  0  0  0  0  0  0  0  0  0  0  0
   -1.5600   -0.2320   -0.0320 C   0  0  0  0  0  0  0  0  0  0  0  0
   -1.0086    1.0871    0.2073 C   0  0  0  0  0  0  0  0  0  0  0  0
   -1.8254    2.1711    0.1026 N   0  0  0  0  0  0  0  0  0  0  0  0
   -1.3882    3.4416    0.1588 C   0  0  0  0  0  0  0  0  0  0  0  0
   -2.2376    4.5140   -0.0579 C   0  0  0  0  0  0  0  0  0  0  0  0
   -1.7860    5.8150   -0.0885 C   0  0  0  0  0  0  0  0  0  0  0  0
   -0.4327    6.0054    0.1167 C   0  0  0  0  0  0  0  0  0  0  0  0
    0.4316    4.9800    0.3354 C   0  0  0  0  0  0  0  0  0  0  0  0
   -0.0595    3.7121    0.3432 C   0  0  0  0  0  0  0  0  0  0  0  0
    0.7527    2.6499    0.4549 N   0  0  0  0  0  0  0  0  0  0  0  0
    0.2963    1.3370    0.3888 C   0  0  0  0  0  0  0  0  0  0  0  0
    1.3350    0.3663    0.5361 C   0  0  0  0  0  0  0  0  0  0  0  0
    2.2111   -0.4254    0.6513 C   0  0  0  0  0  0  0  0  0  0  0  0
    3.3382   -1.4101    0.7906 C   0  0  0  0  0  0  0  0  0  0  0  0
    3.3517   -2.4557   -0.0685 C   0  0  0  0  0  0  0  0  0  0  0  0
    4.5936   -2.8993   -0.6099 C   0  0  0  0  0  0  0  0  0  0  0  0
    5.7331   -2.2412   -0.2344 C   0  0  0  0  0  0  0  0  0  0  0  0
    6.8810   -2.3228   -1.1730 C   0  0  0  0  0  0  0  0  0  0  0  0
    7.8285   -2.3748   -1.9547 N   0  0  0  0  0  0  0  0  0  0  0  0
    5.7424   -1.1927    0.6706 C   0  0  0  0  0  0  0  0  0  0  0  0
    4.5152   -0.7701    1.1964 C   0  0  0  0  0  0  0  0  0  0  0  0
   -2.4941   -1.0029    0.6117 C   0  0  0  0  0  0  0  0  0  0  0  0
   -3.0481   -0.9575    1.8458 C   0  0  0  0  0  0  0  0  0  0  0  0
   -4.0155   -1.8728    2.2553 C   0  0  0  0  0  0  0  0  0  0  0  0
   -4.3971   -2.8469    1.3087 C   0  0  0  0  0  0  0  0  0  0  0  0
   -3.8651   -2.9144    0.0933 C   0  0  0  0  0  0  0  0  0  0  0  0
   -2.8842   -1.9917   -0.3126 C   0  0  0  0  0  0  0  0  0  0  0  0
   -3.3401   -2.9701   -2.8164 H   0  0  0  0  0  0  0  0  0  0  0  0
   -1.7626   -2.2939   -3.4527 H   0  0  0  0  0  0  0  0  0  0  0  0
   -1.7605   -3.6848   -2.2781 H   0  0  0  0  0  0  0  0  0  0  0  0
   -0.7850   -0.3826   -2.0475 H   0  0  0  0  0  0  0  0  0  0  0  0
   -3.2742    4.2788   -0.2109 H   0  0  0  0  0  0  0  0  0  0  0  0
   -2.3960    6.6958   -0.2620 H   0  0  0  0  0  0  0  0  0  0  0  0
   -0.0273    7.0209    0.1212 H   0  0  0  0  0  0  0  0  0  0  0  0
    1.5286    5.1829    0.5004 H   0  0  0  0  0  0  0  0  0  0  0  0
    2.4480   -2.9369   -0.3829 H   0  0  0  0  0  0  0  0  0  0  0  0
    4.6532   -3.7325   -1.3003 H   0  0  0  0  0  0  0  0  0  0  0  0
    6.6782   -0.7384    0.9595 H   0  0  0  0  0  0  0  0  0  0  0  0
    4.5121    0.0297    1.8877 H   0  0  0  0  0  0  0  0  0  0  0  0
   -2.6926   -0.2220    2.5428 H   0  0  0  0  0  0  0  0  0  0  0  0
   -4.4492   -1.8357    3.2141 H   0  0  0  0  0  0  0  0  0  0  0  0
   -5.1879   -3.5621    1.6044 H   0  0  0  0  0  0  0  0  0  0  0  0
   -4.2051   -3.6516   -0.6768 H   0  0  0  0  0  0  0  0  0  0  0  0
  1  2  1  0
  2  3  1  0
  3  4  2  0
  4  5  1  0
  5  6  2  0
  6  7  1  0
  7  8  2  0
  8  9  1  0
  9 10  2  0
 10 11  1  0
 11 12  2  0
 12 13  1  0
 13 14  2  0
 14 15  1  0
 15 16  3  0
 16 17  1  0
 17 18  2  0
 18 19  1  0
 19 20  2  0
 20 21  1  0
 21 22  3  0
 20 23  1  0
 23 24  2  0
  4 25  1  0
 25 26  2  0
 26 27  1  0
 27 28  2  0
 28 29  1  0
 29 30  2  0
 30  2  1  0
 14  5  1  0
 24 17  1  0
 30 25  1  0
 12  7  1  0
  1 31  1  0
  1 32  1  0
  1 33  1  0
  3 34  1  0
  8 35  1  0
  9 36  1  0
 10 37  1  0
 11 38  1  0
 18 39  1  0
 19 40  1  0
 23 41  1  0
 24 42  1  0
 26 43  1  0
 27 44  1  0
 28 45  1  0
 29 46  1  0
M  END
