
     RDKit          3D

 99111  0  0  0  0  0  0  0  0999 V2000
   -4.6313    4.8684   -0.0031 C   0  0  0  0  0  0  0  0  0  0  0  0
   -4.6842    4.2311    1.2165 C   0  0  0  0  0  0  0  0  0  0  0  0
   -5.0309    2.9208    1.3256 C   0  0  0  0  0  0  0  0  0  0  0  0
   -5.3462    2.1779    0.1925 C   0  0  0  0  0  0  0  0  0  0  0  0
   -5.7188    0.8001    0.3215 N   0  0  0  0  0  0  0  0  0  0  0  0
   -4.8751   -0.2224    0.2428 C   0  0  0  0  0  0  0  0  0  0  0  0
   -3.4393   -0.3227   -0.0392 C   0  0  0  0  0  0  0  0  0  0  0  0
   -2.6180    0.7650   -0.0927 C   0  0  0  0  0  0  0  0  0  0  0  0
   -1.2586    0.5632   -0.3910 C   0  0  0  0  0  0  0  0  0  0  0  0
   -0.7100   -0.6592   -0.6323 C   0  0  0  0  0  0  0  0  0  0  0  0
    0.7125   -0.8255   -0.9040 C   0  0  0  0  0  0  0  0  0  0  0  0
    1.4929   -1.3983    0.0985 C   0  0  0  0  0  0  0  0  0  0  0  0
    0.9267   -1.7970    1.3021 C   0  0  0  0  0  0  0  0  0  0  0  0
    1.7144   -2.3618    2.2786 C   0  0  0  0  0  0  0  0  0  0  0  0
    3.0586   -2.5170    2.0307 C   0  0  0  0  0  0  0  0  0  0  0  0
    3.6084   -2.1171    0.8321 C   0  0  0  0  0  0  0  0  0  0  0  0
    2.8349   -1.5423   -0.1741 C   0  0  0  0  0  0  0  0  0  0  0  0
    3.3880   -1.1357   -1.3836 C   0  0  0  0  0  0  0  0  0  0  0  0
    4.7883   -1.3323   -1.6071 C   0  0  0  0  0  0  0  0  0  0  0  0
    5.2383   -2.2341   -2.5200 C   0  0  0  0  0  0  0  0  0  0  0  0
    6.5859   -2.4336   -2.6712 C   0  0  0  0  0  0  0  0  0  0  0  0
    7.4903   -1.7257   -1.9028 C   0  0  0  0  0  0  0  0  0  0  0  0
    7.0147   -0.8242   -0.9901 C   0  0  0  0  0  0  0  0  0  0  0  0
    7.8800   -0.0852   -0.1046 N   0  0  0  0  0  0  0  0  0  0  0  0
    7.9071    1.2389    0.0460 C   0  0  0  0  0  0  0  0  0  0  0  0
    7.2079    2.2955   -0.5396 C   0  0  0  0  0  0  0  0  0  0  0  0
    7.4254    3.6103   -0.1937 C   0  0  0  0  0  0  0  0  0  0  0  0
    8.3720    3.9172    0.7726 C   0  0  0  0  0  0  0  0  0  0  0  0
    9.0577    2.8756    1.3461 C   0  0  0  0  0  0  0  0  0  0  0  0
    8.8437    1.5390    1.0012 C   0  0  0  0  0  0  0  0  0  0  0  0
    9.3976    0.3683    1.4391 C   0  0  0  0  0  0  0  0  0  0  0  0
   10.3669    0.0996    2.3789 C   0  0  0  0  0  0  0  0  0  0  0  0
   10.6944   -1.2456    2.5824 C   0  0  0  0  0  0  0  0  0  0  0  0
   10.0914   -2.2577    1.8896 C   0  0  0  0  0  0  0  0  0  0  0  0
    9.1255   -1.9592    0.9560 C   0  0  0  0  0  0  0  0  0  0  0  0
    8.7739   -0.6272    0.7282 C   0  0  0  0  0  0  0  0  0  0  0  0
    5.6683   -0.6127   -0.8290 C   0  0  0  0  0  0  0  0  0  0  0  0
    2.5803   -0.5774   -2.3348 C   0  0  0  0  0  0  0  0  0  0  0  0
    3.0682   -0.1508   -3.5640 C   0  0  0  0  0  0  0  0  0  0  0  0
    2.2663    0.4106   -4.5309 C   0  0  0  0  0  0  0  0  0  0  0  0
    0.9071    0.5728   -4.3012 C   0  0  0  0  0  0  0  0  0  0  0  0
    0.4143    0.1563   -3.0932 C   0  0  0  0  0  0  0  0  0  0  0  0
    1.2170   -0.4094   -2.1176 C   0  0  0  0  0  0  0  0  0  0  0  0
   -1.5393   -1.7399   -0.5777 C   0  0  0  0  0  0  0  0  0  0  0  0
   -2.8692   -1.5800   -0.2883 C   0  0  0  0  0  0  0  0  0  0  0  0
   -5.5758   -1.3801    0.4503 N   0  0  0  0  0  0  0  0  0  0  0  0
   -6.8623   -1.0870    0.6594 C   0  0  0  0  0  0  0  0  0  0  0  0
   -7.9562   -1.8970    0.9199 C   0  0  0  0  0  0  0  0  0  0  0  0
   -7.8156   -3.2621    1.0103 C   0  0  0  0  0  0  0  0  0  0  0  0
   -8.8826   -4.0990    1.2835 C   0  0  0  0  0  0  0  0  0  0  0  0
  -10.1218   -3.5390    1.4692 C   0  0  0  0  0  0  0  0  0  0  0  0
  -10.2946   -2.1523    1.3832 C   0  0  0  0  0  0  0  0  0  0  0  0
   -9.1938   -1.3393    1.1058 C   0  0  0  0  0  0  0  0  0  0  0  0
   -9.3297    0.0220    1.0282 C   0  0  0  0  0  0  0  0  0  0  0  0
  -10.5618    0.5763    1.1974 C   0  0  0  0  0  0  0  0  0  0  0  0
  -10.7066    1.9520    1.1057 C   0  0  0  0  0  0  0  0  0  0  0  0
   -9.6232    2.7416    0.8483 C   0  0  0  0  0  0  0  0  0  0  0  0
   -8.3733    2.1923    0.6760 C   0  0  0  0  0  0  0  0  0  0  0  0
   -8.2057    0.8335    0.7626 C   0  0  0  0  0  0  0  0  0  0  0  0
   -6.9511    0.3013    0.5752 C   0  0  0  0  0  0  0  0  0  0  0  0
   -5.2983    2.7984   -1.0332 C   0  0  0  0  0  0  0  0  0  0  0  0
   -4.9472    4.1217   -1.1298 C   0  0  0  0  0  0  0  0  0  0  0  0
   -4.3566    5.9139   -0.1068 H   0  0  0  0  0  0  0  0  0  0  0  0
   -4.4272    4.8451    2.0929 H   0  0  0  0  0  0  0  0  0  0  0  0
   -5.0575    2.4595    2.2984 H   0  0  0  0  0  0  0  0  0  0  0  0
   -2.9545    1.7730    0.0828 H   0  0  0  0  0  0  0  0  0  0  0  0
   -0.6774    1.5002   -0.4094 H   0  0  0  0  0  0  0  0  0  0  0  0
   -0.1448   -1.6419    1.4302 H   0  0  0  0  0  0  0  0  0  0  0  0
    1.2799   -2.6737    3.2174 H   0  0  0  0  0  0  0  0  0  0  0  0
    3.6855   -2.9622    2.8029 H   0  0  0  0  0  0  0  0  0  0  0  0
    4.6742   -2.2481    0.6417 H   0  0  0  0  0  0  0  0  0  0  0  0
    4.5793   -2.8148   -3.1449 H   0  0  0  0  0  0  0  0  0  0  0  0
    6.9429   -3.1480   -3.3918 H   0  0  0  0  0  0  0  0  0  0  0  0
    8.5694   -1.8725   -2.0095 H   0  0  0  0  0  0  0  0  0  0  0  0
    6.4730    2.0261   -1.2942 H   0  0  0  0  0  0  0  0  0  0  0  0
    6.8645    4.4274   -0.6677 H   0  0  0  0  0  0  0  0  0  0  0  0
    8.5431    4.9642    1.0464 H   0  0  0  0  0  0  0  0  0  0  0  0
    9.8018    3.0933    2.1053 H   0  0  0  0  0  0  0  0  0  0  0  0
   10.8522    0.8829    2.9346 H   0  0  0  0  0  0  0  0  0  0  0  0
   11.4463   -1.4952    3.3094 H   0  0  0  0  0  0  0  0  0  0  0  0
   10.3665   -3.2819    2.0685 H   0  0  0  0  0  0  0  0  0  0  0  0
    8.6271   -2.7302    0.3888 H   0  0  0  0  0  0  0  0  0  0  0  0
    5.3279    0.1085   -0.1027 H   0  0  0  0  0  0  0  0  0  0  0  0
    4.1288   -0.2809   -3.7320 H   0  0  0  0  0  0  0  0  0  0  0  0
    2.6544    0.7336   -5.4655 H   0  0  0  0  0  0  0  0  0  0  0  0
    0.2589    1.0067   -5.0344 H   0  0  0  0  0  0  0  0  0  0  0  0
   -0.6572    0.2572   -2.8494 H   0  0  0  0  0  0  0  0  0  0  0  0
   -1.1905   -2.7720   -0.7590 H   0  0  0  0  0  0  0  0  0  0  0  0
   -3.5275   -2.4669   -0.2511 H   0  0  0  0  0  0  0  0  0  0  0  0
   -6.8542   -3.7023    0.8680 H   0  0  0  0  0  0  0  0  0  0  0  0
   -8.7736   -5.1936    1.3599 H   0  0  0  0  0  0  0  0  0  0  0  0
  -10.9611   -4.1850    1.6844 H   0  0  0  0  0  0  0  0  0  0  0  0
  -11.2864   -1.8148    1.5411 H   0  0  0  0  0  0  0  0  0  0  0  0
  -11.4197   -0.0418    1.4027 H   0  0  0  0  0  0  0  0  0  0  0  0
  -11.6781    2.3647    1.2410 H   0  0  0  0  0  0  0  0  0  0  0  0
   -9.7601    3.8054    0.7788 H   0  0  0  0  0  0  0  0  0  0  0  0
   -7.5835    2.8479    0.4737 H   0  0  0  0  0  0  0  0  0  0  0  0
   -5.5476    2.2177   -1.9439 H   0  0  0  0  0  0  0  0  0  0  0  0
   -4.9163    4.5984   -2.1140 H   0  0  0  0  0  0  0  0  0  0  0  0
  1  2  2  0
  2  3  1  0
  3  4  2  0
  4  5  1  0
  5  6  1  0
  6  7  1  0
  7  8  2  0
  8  9  1  0
  9 10  2  0
 10 11  1  0
 11 12  1  0
 12 13  2  0
 13 14  1  0
 14 15  2  0
 15 16  1  0
 16 17  2  0
 17 18  1  0
 18 19  1  0
 19 20  2  0
 20 21  1  0
 21 22  2  0
 22 23  1  0
 23 24  1  0
 24 25  1  0
 25 26  2  0
 26 27  1  0
 27 28  2  0
 28 29  1  0
 29 30  2  0
 30 31  1  0
 31 32  2  0
 32 33  1  0
 33 34  2  0
 34 35  1  0
 35 36  2  0
 23 37  2  0
 18 38  2  0
 38 39  1  0
 39 40  2  0
 40 41  1  0
 41 42  2  0
 42 43  1  0
 10 44  1  0
 44 45  2  0
  6 46  2  0
 46 47  1  0
 47 48  2  0
 48 49  1  0
 49 50  2  0
 50 51  1  0
 51 52  2  0
 52 53  1  0
 53 54  2  0
 54 55  1  0
 55 56  2  0
 56 57  1  0
 57 58  2  0
 58 59  1  0
 59 60  2  0
  4 61  1  0
 61 62  2  0
 62  1  1  0
 60  5  1  0
 45  7  1  0
 60 47  1  0
 43 11  2  0
 53 48  1  0
 59 54  1  0
 17 12  1  0
 37 19  1  0
 43 38  1  0
 36 24  1  0
 30 25  1  0
 36 31  1  0
  1 63  1  0
  2 64  1  0
  3 65  1  0
  8 66  1  0
  9 67  1  0
 13 68  1  0
 14 69  1  0
 15 70  1  0
 16 71  1  0
 20 72  1  0
 21 73  1  0
 22 74  1  0
 26 75  1  0
 27 76  1  0
 28 77  1  0
 29 78  1  0
 32 79  1  0
 33 80  1  0
 34 81  1  0
 35 82  1  0
 37 83  1  0
 39 84  1  0
 40 85  1  0
 41 86  1  0
 42 87  1  0
 44 88  1  0
 45 89  1  0
 49 90  1  0
 50 91  1  0
 51 92  1  0
 52 93  1  0
 55 94  1  0
 56 95  1  0
 57 96  1  0
 58 97  1  0
 61 98  1  0
 62 99  1  0
M  END
