
     RDKit          3D

 47 49  0  0  0  0  0  0  0  0999 V2000
    5.7460    0.9594   -0.8250 C   0  0  0  0  0  0  0  0  0  0  0  0
    4.9151   -0.0481   -0.0666 C   0  0  0  0  0  0  0  0  0  0  0  0
    5.3275   -1.4456   -0.5488 C   0  0  0  0  0  0  0  0  0  0  0  0
    5.3238    0.0604    1.3901 C   0  0  0  0  0  0  0  0  0  0  0  0
    3.4745    0.0727   -0.2701 C   0  0  0  0  0  0  0  0  0  0  0  0
    2.9869    0.6344   -1.4243 C   0  0  0  0  0  0  0  0  0  0  0  0
    1.6348    0.7327   -1.5915 C   0  0  0  0  0  0  0  0  0  0  0  0
    0.7095    0.2904   -0.6475 C   0  0  0  0  0  0  0  0  0  0  0  0
    1.1904   -0.2746    0.5134 C   0  0  0  0  0  0  0  0  0  0  0  0
    2.5651   -0.3756    0.6859 C   0  0  0  0  0  0  0  0  0  0  0  0
    0.0282   -0.6611    1.3518 C   0  0  0  0  0  0  0  0  0  0  0  0
   -1.1730   -0.2772    0.5935 C   0  0  0  0  0  0  0  0  0  0  0  0
   -2.5439   -0.3672    0.8252 C   0  0  0  0  0  0  0  0  0  0  0  0
   -3.4799    0.0809   -0.0770 C   0  0  0  0  0  0  0  0  0  0  0  0
   -4.9299   -0.0119    0.1635 C   0  0  0  0  0  0  0  0  0  0  0  0
   -5.6532   -0.1148   -1.1754 C   0  0  0  0  0  0  0  0  0  0  0  0
   -5.3016   -1.2375    0.9637 C   0  0  0  0  0  0  0  0  0  0  0  0
   -5.3980    1.2564    0.8153 C   0  0  0  0  0  0  0  0  0  0  0  0
   -3.0383    0.6396   -1.2539 C   0  0  0  0  0  0  0  0  0  0  0  0
   -1.6860    0.7345   -1.4957 C   0  0  0  0  0  0  0  0  0  0  0  0
   -0.7448    0.2845   -0.5898 C   0  0  0  0  0  0  0  0  0  0  0  0
    5.6057    0.9259   -1.9211 H   0  0  0  0  0  0  0  0  0  0  0  0
    6.8196    0.6546   -0.6163 H   0  0  0  0  0  0  0  0  0  0  0  0
    5.5879    1.9889   -0.3920 H   0  0  0  0  0  0  0  0  0  0  0  0
    4.7164   -1.6497   -1.4763 H   0  0  0  0  0  0  0  0  0  0  0  0
    6.4046   -1.4798   -0.7558 H   0  0  0  0  0  0  0  0  0  0  0  0
    5.0033   -2.1765    0.2039 H   0  0  0  0  0  0  0  0  0  0  0  0
    4.9077   -0.7103    2.0373 H   0  0  0  0  0  0  0  0  0  0  0  0
    6.4421   -0.1140    1.3904 H   0  0  0  0  0  0  0  0  0  0  0  0
    5.1638    1.0762    1.7663 H   0  0  0  0  0  0  0  0  0  0  0  0
    3.6274    1.0050   -2.2113 H   0  0  0  0  0  0  0  0  0  0  0  0
    1.2551    1.1792   -2.5113 H   0  0  0  0  0  0  0  0  0  0  0  0
    2.9287   -0.8200    1.6021 H   0  0  0  0  0  0  0  0  0  0  0  0
   -0.0006   -0.0632    2.3085 H   0  0  0  0  0  0  0  0  0  0  0  0
    0.0436   -1.7447    1.6225 H   0  0  0  0  0  0  0  0  0  0  0  0
   -2.8637   -0.8082    1.7573 H   0  0  0  0  0  0  0  0  0  0  0  0
   -5.0258   -0.6496   -1.9181 H   0  0  0  0  0  0  0  0  0  0  0  0
   -6.5705   -0.7114   -1.0092 H   0  0  0  0  0  0  0  0  0  0  0  0
   -5.9895    0.8761   -1.5328 H   0  0  0  0  0  0  0  0  0  0  0  0
   -4.7904   -2.1061    0.4745 H   0  0  0  0  0  0  0  0  0  0  0  0
   -6.4017   -1.3953    0.7819 H   0  0  0  0  0  0  0  0  0  0  0  0
   -5.0849   -1.1558    2.0313 H   0  0  0  0  0  0  0  0  0  0  0  0
   -5.1355    2.0996    0.1336 H   0  0  0  0  0  0  0  0  0  0  0  0
   -6.5185    1.2084    0.8758 H   0  0  0  0  0  0  0  0  0  0  0  0
   -5.0094    1.4353    1.8196 H   0  0  0  0  0  0  0  0  0  0  0  0
   -3.7140    1.0193   -2.0229 H   0  0  0  0  0  0  0  0  0  0  0  0
   -1.3548    1.1841   -2.4434 H   0  0  0  0  0  0  0  0  0  0  0  0
  1  2  1  0
  2  3  1  0
  2  4  1  0
  2  5  1  0
  5  6  2  0
  6  7  1  0
  7  8  2  0
  8  9  1  0
  9 10  2  0
  9 11  1  0
 11 12  1  0
 12 13  2  0
 13 14  1  0
 14 15  1  0
 15 16  1  0
 15 17  1  0
 15 18  1  0
 14 19  2  0
 19 20  1  0
 20 21  2  0
 10  5  1  0
 21 12  1  0
 21  8  1  0
  1 22  1  0
  1 23  1  0
  1 24  1  0
  3 25  1  0
  3 26  1  0
  3 27  1  0
  4 28  1  0
  4 29  1  0
  4 30  1  0
  6 31  1  0
  7 32  1  0
 10 33  1  0
 11 34  1  0
 11 35  1  0
 13 36  1  0
 16 37  1  0
 16 38  1  0
 16 39  1  0
 17 40  1  0
 17 41  1  0
 17 42  1  0
 18 43  1  0
 18 44  1  0
 18 45  1  0
 19 46  1  0
 20 47  1  0
M  END
