
     RDKit          3D

 39 40  0  0  0  0  0  0  0  0999 V2000
   -7.2587    0.8065   -0.6732 C   0  0  0  0  0  0  0  0  0  0  0  0
   -5.9313    0.3254   -0.2285 C   0  0  0  0  0  0  0  0  0  0  0  0
   -4.7802    1.0164   -0.4494 C   0  0  0  0  0  0  0  0  0  0  0  0
   -3.5499    0.5120   -0.0061 C   0  0  0  0  0  0  0  0  0  0  0  0
   -3.4173   -0.6781    0.6618 C   0  0  0  0  0  0  0  0  0  0  0  0
   -2.2088   -1.2689    1.1009 C   0  0  0  0  0  0  0  0  0  0  0  0
   -2.4077   -2.3226    1.8911 O   0  0  0  0  0  0  0  0  0  0  0  0
   -0.8257   -1.0209    0.9073 C   0  0  0  0  0  0  0  0  0  0  0  0
   -0.1791   -0.1414    0.1915 C   0  0  0  0  0  0  0  0  0  0  0  0
    1.3005   -0.0377    0.1231 C   0  0  0  0  0  0  0  0  0  0  0  0
    2.1721   -0.8018    0.8167 C   0  0  0  0  0  0  0  0  0  0  0  0
    3.5440   -0.7182    0.7296 C   0  0  0  0  0  0  0  0  0  0  0  0
    4.0832    0.2278   -0.1406 C   0  0  0  0  0  0  0  0  0  0  0  0
    5.4901    0.3304   -0.2653 N   0  0  0  0  0  0  0  0  0  0  0  0
    6.2090    1.4482    0.2839 C   0  0  0  0  0  0  0  0  0  0  0  0
    6.2096   -0.7139   -0.9449 C   0  0  0  0  0  0  0  0  0  0  0  0
    3.2267    1.0305   -0.8667 C   0  0  0  0  0  0  0  0  0  0  0  0
    1.8532    0.9162   -0.7516 C   0  0  0  0  0  0  0  0  0  0  0  0
   -4.6390   -1.3535    0.8649 C   0  0  0  0  0  0  0  0  0  0  0  0
   -5.8470   -0.8720    0.4364 C   0  0  0  0  0  0  0  0  0  0  0  0
   -7.4545    1.8381   -0.3131 H   0  0  0  0  0  0  0  0  0  0  0  0
   -7.2490    0.7946   -1.7973 H   0  0  0  0  0  0  0  0  0  0  0  0
   -8.0252    0.0876   -0.3384 H   0  0  0  0  0  0  0  0  0  0  0  0
   -4.7914    1.9534   -0.9606 H   0  0  0  0  0  0  0  0  0  0  0  0
   -2.6840    1.1176   -0.1878 H   0  0  0  0  0  0  0  0  0  0  0  0
   -0.1329   -1.7131    1.4755 H   0  0  0  0  0  0  0  0  0  0  0  0
   -0.7684    0.5336   -0.3946 H   0  0  0  0  0  0  0  0  0  0  0  0
    1.7969   -1.5551    1.5118 H   0  0  0  0  0  0  0  0  0  0  0  0
    4.1693   -1.3714    1.3237 H   0  0  0  0  0  0  0  0  0  0  0  0
    6.7221    1.1219    1.2264 H   0  0  0  0  0  0  0  0  0  0  0  0
    5.5467    2.3106    0.5118 H   0  0  0  0  0  0  0  0  0  0  0  0
    7.0541    1.7533   -0.3864 H   0  0  0  0  0  0  0  0  0  0  0  0
    6.6997   -0.3221   -1.8531 H   0  0  0  0  0  0  0  0  0  0  0  0
    6.9910   -1.1786   -0.2772 H   0  0  0  0  0  0  0  0  0  0  0  0
    5.5486   -1.5824   -1.2010 H   0  0  0  0  0  0  0  0  0  0  0  0
    3.6944    1.7480   -1.5252 H   0  0  0  0  0  0  0  0  0  0  0  0
    1.1921    1.5382   -1.3152 H   0  0  0  0  0  0  0  0  0  0  0  0
   -4.6094   -2.2817    1.3732 H   0  0  0  0  0  0  0  0  0  0  0  0
   -6.7439   -1.4771    0.6459 H   0  0  0  0  0  0  0  0  0  0  0  0
  1  2  1  0
  2  3  2  0
  3  4  1  0
  4  5  2  0
  5  6  1  0
  6  7  2  0
  6  8  1  0
  8  9  2  0
  9 10  1  0
 10 11  2  0
 11 12  1  0
 12 13  2  0
 13 14  1  0
 14 15  1  0
 14 16  1  0
 13 17  1  0
 17 18  2  0
  5 19  1  0
 19 20  2  0
 20  2  1  0
 18 10  1  0
  1 21  1  0
  1 22  1  0
  1 23  1  0
  3 24  1  0
  4 25  1  0
  8 26  1  0
  9 27  1  0
 11 28  1  0
 12 29  1  0
 15 30  1  0
 15 31  1  0
 15 32  1  0
 16 33  1  0
 16 34  1  0
 16 35  1  0
 17 36  1  0
 18 37  1  0
 19 38  1  0
 20 39  1  0
M  END
