
     RDKit          3D

 29 32  0  0  0  0  0  0  0  0999 V2000
    4.8534   -0.0778   -0.1458 O   0  0  0  0  0  0  0  0  0  0  0  0
    3.7209   -0.7080   -0.1540 C   0  0  0  0  0  0  0  0  0  0  0  0
    3.8681   -2.0573   -0.2351 O   0  0  0  0  0  0  0  0  0  0  0  0
    2.5278    0.1000   -0.0781 C   0  0  0  0  0  0  0  0  0  0  0  0
    2.6566    1.4997   -0.0010 C   0  0  0  0  0  0  0  0  0  0  0  0
    1.5598    2.3238    0.0735 C   0  0  0  0  0  0  0  0  0  0  0  0
    0.2822    1.8419    0.0774 C   0  0  0  0  0  0  0  0  0  0  0  0
   -0.8149    2.6811    0.1528 C   0  0  0  0  0  0  0  0  0  0  0  0
   -2.0756    2.1213    0.1519 C   0  0  0  0  0  0  0  0  0  0  0  0
   -2.2633    0.7533    0.0780 C   0  0  0  0  0  0  0  0  0  0  0  0
   -3.5099    0.2005    0.0771 C   0  0  0  0  0  0  0  0  0  0  0  0
   -3.7288   -1.1580    0.0046 C   0  0  0  0  0  0  0  0  0  0  0  0
   -2.6246   -1.9674   -0.0692 C   0  0  0  0  0  0  0  0  0  0  0  0
   -1.3682   -1.4318   -0.0696 C   0  0  0  0  0  0  0  0  0  0  0  0
   -0.2770   -2.2580   -0.1440 C   0  0  0  0  0  0  0  0  0  0  0  0
    1.0222   -1.7275   -0.1457 C   0  0  0  0  0  0  0  0  0  0  0  0
    1.2331   -0.3685   -0.0729 C   0  0  0  0  0  0  0  0  0  0  0  0
    0.1235    0.4811    0.0033 C   0  0  0  0  0  0  0  0  0  0  0  0
   -1.1503   -0.0717    0.0031 C   0  0  0  0  0  0  0  0  0  0  0  0
    4.6056   -2.4894    0.3385 H   0  0  0  0  0  0  0  0  0  0  0  0
    3.6633    1.9080   -0.0025 H   0  0  0  0  0  0  0  0  0  0  0  0
    1.6938    3.3946    0.1316 H   0  0  0  0  0  0  0  0  0  0  0  0
   -0.6724    3.7621    0.2113 H   0  0  0  0  0  0  0  0  0  0  0  0
   -2.9681    2.7297    0.2089 H   0  0  0  0  0  0  0  0  0  0  0  0
   -4.3734    0.8737    0.1372 H   0  0  0  0  0  0  0  0  0  0  0  0
   -4.7325   -1.5630    0.0062 H   0  0  0  0  0  0  0  0  0  0  0  0
   -2.7417   -3.0426   -0.1280 H   0  0  0  0  0  0  0  0  0  0  0  0
   -0.3621   -3.3504   -0.2046 H   0  0  0  0  0  0  0  0  0  0  0  0
    1.8525   -2.3992   -0.2048 H   0  0  0  0  0  0  0  0  0  0  0  0
  1  2  2  0
  2  3  1  0
  2  4  1  0
  4  5  2  0
  5  6  1  0
  6  7  2  0
  7  8  1  0
  8  9  2  0
  9 10  1  0
 10 11  2  0
 11 12  1  0
 12 13  2  0
 13 14  1  0
 14 15  2  0
 15 16  1  0
 16 17  2  0
 17 18  1  0
 18 19  2  0
 17  4  1  0
 18  7  1  0
 19 10  1  0
 19 14  1  0
  3 20  1  0
  5 21  1  0
  6 22  1  0
  8 23  1  0
  9 24  1  0
 11 25  1  0
 12 26  1  0
 13 27  1  0
 15 28  1  0
 16 29  1  0
M  END
