
     RDKit          3D

 58 64  0  0  0  0  0  0  0  0999 V2000
    3.3354    0.0601    1.8818 O   0  0  0  0  0  0  0  0  0  0  0  0
    2.5725   -0.0186    0.8862 C   0  0  0  0  0  0  0  0  0  0  0  0
    1.1434    0.0563    1.1200 C   0  0  0  0  0  0  0  0  0  0  0  0
    0.6577    0.2106    2.4162 C   0  0  0  0  0  0  0  0  0  0  0  0
   -0.6994    0.2823    2.6431 C   0  0  0  0  0  0  0  0  0  0  0  0
   -1.5631    0.1991    1.5718 C   0  0  0  0  0  0  0  0  0  0  0  0
   -1.0796    0.0449    0.2762 C   0  0  0  0  0  0  0  0  0  0  0  0
   -1.9719   -0.0376   -0.7973 C   0  0  0  0  0  0  0  0  0  0  0  0
   -3.3536    0.0450   -0.4758 N   0  0  0  0  0  0  0  0  0  0  0  0
   -4.2186   -0.9624   -0.3758 C   0  0  0  0  0  0  0  0  0  0  0  0
   -4.0559   -2.3404   -0.5446 C   0  0  0  0  0  0  0  0  0  0  0  0
   -5.1491   -3.1563   -0.3745 C   0  0  0  0  0  0  0  0  0  0  0  0
   -6.3785   -2.6150   -0.0437 C   0  0  0  0  0  0  0  0  0  0  0  0
   -6.5587   -1.2550    0.1274 C   0  0  0  0  0  0  0  0  0  0  0  0
   -5.4666   -0.4430   -0.0428 C   0  0  0  0  0  0  0  0  0  0  0  0
   -5.2994    0.9112    0.0488 C   0  0  0  0  0  0  0  0  0  0  0  0
   -6.1864    1.9467    0.3493 C   0  0  0  0  0  0  0  0  0  0  0  0
   -5.7652    3.2609    0.3794 C   0  0  0  0  0  0  0  0  0  0  0  0
   -4.4425    3.5346    0.1054 C   0  0  0  0  0  0  0  0  0  0  0  0
   -3.5506    2.5052   -0.1956 C   0  0  0  0  0  0  0  0  0  0  0  0
   -3.9999    1.2083   -0.2177 C   0  0  0  0  0  0  0  0  0  0  0  0
   -1.5001   -0.1901   -2.0807 C   0  0  0  0  0  0  0  0  0  0  0  0
   -0.1513   -0.2636   -2.3281 C   0  0  0  0  0  0  0  0  0  0  0  0
    0.7421   -0.1820   -1.2621 C   0  0  0  0  0  0  0  0  0  0  0  0
    0.2629   -0.0270    0.0422 C   0  0  0  0  0  0  0  0  0  0  0  0
    2.1808   -0.2574   -1.4967 C   0  0  0  0  0  0  0  0  0  0  0  0
    2.6404   -0.3969   -2.6612 O   0  0  0  0  0  0  0  0  0  0  0  0
    3.0907   -0.1738   -0.4067 N   0  0  0  0  0  0  0  0  0  0  0  0
    4.5317   -0.2428   -0.5807 C   0  0  0  0  0  0  0  0  0  0  0  0
    5.2084    1.0368   -0.1548 C   0  0  0  0  0  0  0  0  0  0  0  0
    6.3625    0.7976    0.7839 C   0  0  0  0  0  0  0  0  0  0  0  0
    7.2941   -0.1892    0.1305 C   0  0  0  0  0  0  0  0  0  0  0  0
    6.6021   -1.4810   -0.2138 C   0  0  0  0  0  0  0  0  0  0  0  0
    5.1264   -1.4548    0.0974 C   0  0  0  0  0  0  0  0  0  0  0  0
    1.3725    0.2714    3.2266 H   0  0  0  0  0  0  0  0  0  0  0  0
   -1.1095    0.4027    3.6432 H   0  0  0  0  0  0  0  0  0  0  0  0
   -2.6296    0.2551    1.7468 H   0  0  0  0  0  0  0  0  0  0  0  0
   -3.0952   -2.7624   -0.8031 H   0  0  0  0  0  0  0  0  0  0  0  0
   -5.0233   -4.2235   -0.5053 H   0  0  0  0  0  0  0  0  0  0  0  0
   -7.2095   -3.2772    0.0816 H   0  0  0  0  0  0  0  0  0  0  0  0
   -7.5135   -0.8123    0.3865 H   0  0  0  0  0  0  0  0  0  0  0  0
   -7.2304    1.7409    0.5666 H   0  0  0  0  0  0  0  0  0  0  0  0
   -6.4576    4.0711    0.6141 H   0  0  0  0  0  0  0  0  0  0  0  0
   -4.0806    4.5503    0.1204 H   0  0  0  0  0  0  0  0  0  0  0  0
   -2.5123    2.7177   -0.4110 H   0  0  0  0  0  0  0  0  0  0  0  0
   -2.1927   -0.2530   -2.9036 H   0  0  0  0  0  0  0  0  0  0  0  0
    0.2848   -0.3823   -3.3042 H   0  0  0  0  0  0  0  0  0  0  0  0
    4.7106   -0.3645   -1.6696 H   0  0  0  0  0  0  0  0  0  0  0  0
    4.4206    1.6820    0.3109 H   0  0  0  0  0  0  0  0  0  0  0  0
    5.6046    1.6166   -1.0170 H   0  0  0  0  0  0  0  0  0  0  0  0
    6.0522    0.4820    1.7914 H   0  0  0  0  0  0  0  0  0  0  0  0
    6.9050    1.7562    0.8865 H   0  0  0  0  0  0  0  0  0  0  0  0
    7.6125    0.2774   -0.8410 H   0  0  0  0  0  0  0  0  0  0  0  0
    8.1789   -0.3044    0.7594 H   0  0  0  0  0  0  0  0  0  0  0  0
    6.7997   -1.7842   -1.2778 H   0  0  0  0  0  0  0  0  0  0  0  0
    7.0578   -2.2741    0.4141 H   0  0  0  0  0  0  0  0  0  0  0  0
    4.6782   -2.3505   -0.3660 H   0  0  0  0  0  0  0  0  0  0  0  0
    5.0166   -1.4475    1.1861 H   0  0  0  0  0  0  0  0  0  0  0  0
  1  2  2  0
  2  3  1  0
  3  4  1  0
  4  5  2  0
  5  6  1  0
  6  7  2  0
  7  8  1  0
  8  9  1  0
  9 10  1  0
 10 11  2  0
 11 12  1  0
 12 13  2  0
 13 14  1  0
 14 15  2  0
 15 16  1  0
 16 17  2  0
 17 18  1  0
 18 19  2  0
 19 20  1  0
 20 21  2  0
  8 22  2  0
 22 23  1  0
 23 24  2  0
 24 25  1  0
 24 26  1  0
 26 27  2  0
 26 28  1  0
 28 29  1  0
 29 30  1  0
 30 31  1  0
 31 32  1  0
 32 33  1  0
 33 34  1  0
 28  2  1  0
 34 29  1  0
 25  3  2  0
 25  7  1  0
 21  9  1  0
 15 10  1  0
 21 16  1  0
  4 35  1  0
  5 36  1  0
  6 37  1  0
 11 38  1  0
 12 39  1  0
 13 40  1  0
 14 41  1  0
 17 42  1  0
 18 43  1  0
 19 44  1  0
 20 45  1  0
 22 46  1  0
 23 47  1  0
 29 48  1  0
 30 49  1  0
 30 50  1  0
 31 51  1  0
 31 52  1  0
 32 53  1  0
 32 54  1  0
 33 55  1  0
 33 56  1  0
 34 57  1  0
 34 58  1  0
M  END
