
     RDKit          3D

 57 64  0  0  0  0  0  0  0  0999 V2000
   -7.4503   -5.0522    0.4815 C   0  0  0  0  0  0  0  0  0  0  0  0
   -6.3972   -4.1216    0.6022 O   0  0  0  0  0  0  0  0  0  0  0  0
   -5.3204   -4.2311   -0.2445 C   0  0  0  0  0  0  0  0  0  0  0  0
   -5.3088   -5.1541   -1.0958 O   0  0  0  0  0  0  0  0  0  0  0  0
   -4.1799   -3.3131   -0.1970 C   0  0  0  0  0  0  0  0  0  0  0  0
   -3.1201   -3.4533   -1.0674 C   0  0  0  0  0  0  0  0  0  0  0  0
   -2.0470   -2.5737   -1.0109 C   0  0  0  0  0  0  0  0  0  0  0  0
   -2.0089   -1.5456   -0.0927 C   0  0  0  0  0  0  0  0  0  0  0  0
   -0.8385   -0.6737   -0.0723 C   0  0  0  0  0  0  0  0  0  0  0  0
   -1.0416    0.6325   -0.0504 C   0  0  0  0  0  0  0  0  0  0  0  0
   -2.2674    1.4327   -0.0440 C   0  0  0  0  0  0  0  0  0  0  0  0
   -1.8512    2.6991   -0.0058 C   0  0  0  0  0  0  0  0  0  0  0  0
   -2.3704    4.3317    0.0309 S   0  0  0  0  0  0  0  0  0  0  0  0
   -0.8554    5.0918    0.0686 C   0  0  0  0  0  0  0  0  0  0  0  0
   -0.5425    6.5437    0.1135 C   0  0  0  0  0  0  0  0  0  0  0  0
   -1.4598    7.5623    0.1250 C   0  0  0  0  0  0  0  0  0  0  0  0
   -0.9758    8.8066    0.1727 C   0  0  0  0  0  0  0  0  0  0  0  0
    0.3835    8.9641    0.2060 C   0  0  0  0  0  0  0  0  0  0  0  0
    0.9473    7.3533    0.1693 S   0  0  0  0  0  0  0  0  0  0  0  0
    0.0283    4.0579    0.0514 C   0  0  0  0  0  0  0  0  0  0  0  0
   -0.4938    2.8025    0.0125 C   0  0  0  0  0  0  0  0  0  0  0  0
    0.0170    1.5740   -0.0143 N   0  0  0  0  0  4  0  0  0  0  0  0
    1.4509    1.0825   -0.0178 B   0  0  0  0  0  4  0  0  0  0  0  0
    2.2501    1.7460   -1.0424 F   0  0  0  0  0  0  0  0  0  0  0  0
    2.0311    1.5412    1.2625 F   0  0  0  0  0  0  0  0  0  0  0  0
    1.6046   -0.4115   -0.0433 N   0  0  0  0  0  0  0  0  0  0  0  0
    0.5209   -1.1979   -0.0679 C   0  0  0  0  0  0  0  0  0  0  0  0
    0.9078   -2.5288   -0.0841 C   0  0  0  0  0  0  0  0  0  0  0  0
    2.3003   -2.4968   -0.0686 C   0  0  0  0  0  0  0  0  0  0  0  0
    3.7527   -3.3982   -0.0695 S   0  0  0  0  0  0  0  0  0  0  0  0
    4.8693   -2.1237   -0.0384 C   0  0  0  0  0  0  0  0  0  0  0  0
    6.3418   -2.1623   -0.0291 C   0  0  0  0  0  0  0  0  0  0  0  0
    7.0995   -3.2990   -0.0551 C   0  0  0  0  0  0  0  0  0  0  0  0
    8.4337   -3.1441   -0.0403 C   0  0  0  0  0  0  0  0  0  0  0  0
    8.9172   -1.8604   -0.0004 C   0  0  0  0  0  0  0  0  0  0  0  0
    7.4959   -0.9199    0.0150 S   0  0  0  0  0  0  0  0  0  0  0  0
    4.0847   -1.0095   -0.0276 C   0  0  0  0  0  0  0  0  0  0  0  0
    2.7389   -1.2048   -0.0435 C   0  0  0  0  0  0  0  0  0  0  0  0
   -3.0605   -1.4153    0.7640 C   0  0  0  0  0  0  0  0  0  0  0  0
   -4.1283   -2.2837    0.7131 C   0  0  0  0  0  0  0  0  0  0  0  0
   -7.1631   -6.0582    0.8330 H   0  0  0  0  0  0  0  0  0  0  0  0
   -8.3408   -4.6562    1.0406 H   0  0  0  0  0  0  0  0  0  0  0  0
   -7.7303   -5.1577   -0.5956 H   0  0  0  0  0  0  0  0  0  0  0  0
   -3.1603   -4.2605   -1.7799 H   0  0  0  0  0  0  0  0  0  0  0  0
   -1.2698   -2.7631   -1.7404 H   0  0  0  0  0  0  0  0  0  0  0  0
   -3.2597    1.0736   -0.0712 H   0  0  0  0  0  0  0  0  0  0  0  0
   -2.5524    7.3358    0.0952 H   0  0  0  0  0  0  0  0  0  0  0  0
   -1.6216    9.7146    0.1867 H   0  0  0  0  0  0  0  0  0  0  0  0
    0.9441    9.9161    0.2469 H   0  0  0  0  0  0  0  0  0  0  0  0
    1.1221    4.3182    0.0712 H   0  0  0  0  0  0  0  0  0  0  0  0
    0.2975   -3.4053   -0.0996 H   0  0  0  0  0  0  0  0  0  0  0  0
    6.6131   -4.3062   -0.0874 H   0  0  0  0  0  0  0  0  0  0  0  0
    9.1310   -4.0229   -0.0597 H   0  0  0  0  0  0  0  0  0  0  0  0
    9.9868   -1.5797    0.0158 H   0  0  0  0  0  0  0  0  0  0  0  0
    4.5894   -0.0037   -0.0065 H   0  0  0  0  0  0  0  0  0  0  0  0
   -3.0823   -0.6451    1.5050 H   0  0  0  0  0  0  0  0  0  0  0  0
   -4.9614   -2.1473    1.4220 H   0  0  0  0  0  0  0  0  0  0  0  0
  1  2  1  0
  2  3  1  0
  3  4  2  0
  3  5  1  0
  5  6  2  0
  6  7  1  0
  7  8  2  0
  8  9  1  0
  9 10  2  0
 10 11  1  0
 11 12  2  0
 12 13  1  0
 13 14  1  0
 14 15  1  0
 15 16  2  0
 16 17  1  0
 17 18  2  0
 18 19  1  0
 14 20  2  0
 20 21  1  0
 21 22  2  0
 22 23  1  0
 23 24  1  0
 23 25  1  0
 23 26  1  0
 26 27  1  0
 27 28  2  0
 28 29  1  0
 29 30  1  0
 30 31  1  0
 31 32  1  0
 32 33  2  0
 33 34  1  0
 34 35  2  0
 35 36  1  0
 31 37  2  0
 37 38  1  0
  8 39  1  0
 39 40  2  0
 40  5  1  0
 27  9  1  0
 38 29  2  0
 22 10  1  0
 38 26  1  0
 21 12  1  0
 36 32  1  0
 19 15  1  0
  1 41  1  0
  1 42  1  0
  1 43  1  0
  6 44  1  0
  7 45  1  0
 11 46  1  0
 16 47  1  0
 17 48  1  0
 18 49  1  0
 20 50  1  0
 28 51  1  0
 33 52  1  0
 34 53  1  0
 35 54  1  0
 37 55  1  0
 39 56  1  0
 40 57  1  0
M  CHG  2  22   1  23  -1
M  END
