
     RDKit          3D

 94106  0  0  0  0  0  0  0  0999 V2000
    3.9177    2.7521    0.4614 N   0  0  0  0  0  0  0  0  0  0  0  0
    2.9648    1.8989    0.6423 C   0  0  0  0  0  0  0  0  0  0  0  0
    1.8959    0.9152    0.8342 C   0  0  0  0  0  0  0  0  0  0  0  0
    2.1231   -0.2027    1.4543 C   0  0  0  0  0  0  0  0  0  0  0  0
    3.5246   -0.7138    1.4874 N   0  0  0  0  0  0  0  0  0  0  0  0
    4.0364   -1.0410    0.2627 C   0  0  0  0  0  0  0  0  0  0  0  0
    3.5666   -0.9415   -1.0874 C   0  0  0  0  0  0  0  0  0  0  0  0
    4.2772   -1.3492   -2.1198 C   0  0  0  0  0  0  0  0  0  0  0  0
    5.5297   -1.9255   -1.8766 C   0  0  0  0  0  0  0  0  0  0  0  0
    5.9357   -2.0382   -0.6571 C   0  0  0  0  0  0  0  0  0  0  0  0
    5.3029   -1.6282    0.5187 C   0  0  0  0  0  0  0  0  0  0  0  0
    5.4740   -1.6013    1.8611 C   0  0  0  0  0  0  0  0  0  0  0  0
    6.5350   -2.0154    2.6443 C   0  0  0  0  0  0  0  0  0  0  0  0
    6.4553   -1.8291    3.9972 C   0  0  0  0  0  0  0  0  0  0  0  0
    5.3250   -1.2440    4.5906 C   0  0  0  0  0  0  0  0  0  0  0  0
    4.2841   -0.8579    3.7955 C   0  0  0  0  0  0  0  0  0  0  0  0
    4.3395   -1.0266    2.4286 C   0  0  0  0  0  0  0  0  0  0  0  0
    1.1517   -1.1679    1.6886 C   0  0  0  0  0  0  0  0  0  0  0  0
    1.4469   -2.5250    2.2574 C   0  0  0  0  0  0  0  0  0  0  0  0
    1.6678   -3.5418    2.6949 N   0  0  0  0  0  0  0  0  0  0  0  0
   -0.0907   -0.8307    1.1317 C   0  0  0  0  0  0  0  0  0  0  0  0
   -1.1467   -1.8954    1.0027 N   0  0  0  0  0  0  0  0  0  0  0  0
   -0.7537   -3.0499    0.3497 C   0  0  0  0  0  0  0  0  0  0  0  0
    0.0009   -3.8919   -0.0379 C   0  0  0  0  0  0  0  0  0  0  0  0
    0.2988   -5.0138   -0.6912 C   0  0  0  0  0  0  0  0  0  0  0  0
   -1.0403   -5.4492   -1.2546 C   0  0  0  0  0  0  0  0  0  0  0  0
   -2.1193   -4.6487   -0.9576 C   0  0  0  0  0  0  0  0  0  0  0  0
   -2.1884   -3.4954   -0.2237 C   0  0  0  0  0  0  0  0  0  0  0  0
   -3.0032   -2.5949    0.2416 C   0  0  0  0  0  0  0  0  0  0  0  0
   -4.4552   -2.5385    0.1000 C   0  0  0  0  0  0  0  0  0  0  0  0
   -5.2397   -1.5903    0.6831 C   0  0  0  0  0  0  0  0  0  0  0  0
   -4.4450   -0.7090    1.4247 C   0  0  0  0  0  0  0  0  0  0  0  0
   -3.2320   -0.6439    1.6121 C   0  0  0  0  0  0  0  0  0  0  0  0
   -2.3470   -1.6600    0.9836 C   0  0  0  0  0  0  0  0  0  0  0  0
   -0.3308    0.3348    0.4608 C   0  0  0  0  0  0  0  0  0  0  0  0
   -1.4093    0.5000   -0.4416 N   0  0  0  0  0  0  0  0  0  0  0  0
   -2.5505    1.1403   -0.5025 C   0  0  0  0  0  0  0  0  0  0  0  0
   -3.1151    2.1385    0.3447 C   0  0  0  0  0  0  0  0  0  0  0  0
   -4.3319    2.6421    0.0040 C   0  0  0  0  0  0  0  0  0  0  0  0
   -5.0616    2.2268   -1.1409 C   0  0  0  0  0  0  0  0  0  0  0  0
   -4.5028    1.2789   -1.9430 C   0  0  0  0  0  0  0  0  0  0  0  0
   -3.2458    0.7678   -1.5885 C   0  0  0  0  0  0  0  0  0  0  0  0
   -2.5166   -0.1700   -2.2848 C   0  0  0  0  0  0  0  0  0  0  0  0
   -2.7986   -0.9383   -3.4316 C   0  0  0  0  0  0  0  0  0  0  0  0
   -1.7795   -1.9044   -3.8240 C   0  0  0  0  0  0  0  0  0  0  0  0
   -0.7005   -2.0056   -3.1482 C   0  0  0  0  0  0  0  0  0  0  0  0
   -0.4293   -1.2369   -1.9870 C   0  0  0  0  0  0  0  0  0  0  0  0
   -1.3796   -0.3719   -1.6379 C   0  0  0  0  0  0  0  0  0  0  0  0
    0.7048    1.3221    0.2837 C   0  0  0  0  0  0  0  0  0  0  0  0
    0.2493    2.5740   -0.1202 N   0  0  0  0  0  0  0  0  0  0  0  0
    0.0424    3.4720    0.9469 C   0  0  0  0  0  0  0  0  0  0  0  0
    0.4407    3.4180    2.2762 C   0  0  0  0  0  0  0  0  0  0  0  0
    0.0974    4.4476    3.1663 C   0  0  0  0  0  0  0  0  0  0  0  0
   -0.6633    5.4870    2.6583 C   0  0  0  0  0  0  0  0  0  0  0  0
   -1.0366    5.5462    1.3613 C   0  0  0  0  0  0  0  0  0  0  0  0
   -0.6431    4.4850    0.4998 C   0  0  0  0  0  0  0  0  0  0  0  0
   -0.9321    4.3282   -0.8958 C   0  0  0  0  0  0  0  0  0  0  0  0
   -1.6533    5.0260   -1.7129 C   0  0  0  0  0  0  0  0  0  0  0  0
   -1.9450    4.6298   -3.0876 C   0  0  0  0  0  0  0  0  0  0  0  0
   -1.2432    3.3621   -3.2455 C   0  0  0  0  0  0  0  0  0  0  0  0
   -0.5906    2.7207   -2.5136 C   0  0  0  0  0  0  0  0  0  0  0  0
   -0.2669    3.0606   -1.1298 C   0  0  0  0  0  0  0  0  0  0  0  0
    2.5905   -0.4320   -1.2392 H   0  0  0  0  0  0  0  0  0  0  0  0
    3.9651   -1.2455   -3.1744 H   0  0  0  0  0  0  0  0  0  0  0  0
    6.0741   -2.2429   -2.7981 H   0  0  0  0  0  0  0  0  0  0  0  0
    6.9384   -2.4875   -0.4397 H   0  0  0  0  0  0  0  0  0  0  0  0
    7.3632   -2.4303    2.1195 H   0  0  0  0  0  0  0  0  0  0  0  0
    7.2765   -2.1110    4.6133 H   0  0  0  0  0  0  0  0  0  0  0  0
    5.3193   -1.1133    5.6523 H   0  0  0  0  0  0  0  0  0  0  0  0
    3.4240   -0.3839    4.2418 H   0  0  0  0  0  0  0  0  0  0  0  0
    1.1849   -3.5098    0.1905 H   0  0  0  0  0  0  0  0  0  0  0  0
    1.0997   -5.5933   -0.8991 H   0  0  0  0  0  0  0  0  0  0  0  0
   -0.9869   -6.3289   -1.8102 H   0  0  0  0  0  0  0  0  0  0  0  0
   -3.0940   -5.0090   -1.3575 H   0  0  0  0  0  0  0  0  0  0  0  0
   -4.8388   -3.3224   -0.5054 H   0  0  0  0  0  0  0  0  0  0  0  0
   -6.2627   -1.5594    0.5484 H   0  0  0  0  0  0  0  0  0  0  0  0
   -5.1675    0.0748    1.9171 H   0  0  0  0  0  0  0  0  0  0  0  0
   -2.6488    0.0715    2.2098 H   0  0  0  0  0  0  0  0  0  0  0  0
   -2.5243    2.3276    1.2056 H   0  0  0  0  0  0  0  0  0  0  0  0
   -4.7726    3.4077    0.6307 H   0  0  0  0  0  0  0  0  0  0  0  0
   -5.9848    2.7174   -1.3736 H   0  0  0  0  0  0  0  0  0  0  0  0
   -5.0293    0.9447   -2.8668 H   0  0  0  0  0  0  0  0  0  0  0  0
   -3.6573   -0.8995   -4.0128 H   0  0  0  0  0  0  0  0  0  0  0  0
   -1.9883   -2.5002   -4.7190 H   0  0  0  0  0  0  0  0  0  0  0  0
    0.1697   -2.6950   -3.3621 H   0  0  0  0  0  0  0  0  0  0  0  0
    0.5279   -1.3719   -1.4658 H   0  0  0  0  0  0  0  0  0  0  0  0
    1.0336    2.6212    2.6794 H   0  0  0  0  0  0  0  0  0  0  0  0
    0.4158    4.4247    4.1921 H   0  0  0  0  0  0  0  0  0  0  0  0
   -0.9814    6.2375    3.4283 H   0  0  0  0  0  0  0  0  0  0  0  0
   -1.6467    6.3607    0.9647 H   0  0  0  0  0  0  0  0  0  0  0  0
   -2.1584    5.9893   -1.4275 H   0  0  0  0  0  0  0  0  0  0  0  0
   -2.4913    5.0937   -3.7351 H   0  0  0  0  0  0  0  0  0  0  0  0
   -1.5119    3.0368   -4.3122 H   0  0  0  0  0  0  0  0  0  0  0  0
   -0.0392    1.7413   -2.7044 H   0  0  0  0  0  0  0  0  0  0  0  0
  1  2  3  0
  2  3  1  0
  3  4  2  0
  4  5  1  0
  5  6  1  0
  6  7  2  0
  7  8  1  0
  8  9  2  0
  9 10  1  0
 10 11  2  0
 11 12  1  0
 12 13  2  0
 13 14  1  0
 14 15  2  0
 15 16  1  0
 16 17  2  0
  4 18  1  0
 18 19  1  0
 19 20  3  0
 18 21  2  0
 21 22  1  0
 22 23  1  0
 23 24  2  0
 24 25  1  0
 25 26  2  0
 26 27  1  0
 27 28  2  0
 28 29  1  0
 29 30  2  0
 30 31  1  0
 31 32  2  0
 32 33  1  0
 33 34  2  0
 21 35  1  0
 35 36  1  0
 36 37  1  0
 37 38  2  0
 38 39  1  0
 39 40  2  0
 40 41  1  0
 41 42  2  0
 42 43  1  0
 43 44  2  0
 44 45  1  0
 45 46  2  0
 46 47  1  0
 47 48  2  0
 35 49  2  0
 49 50  1  0
 50 51  1  0
 51 52  2  0
 52 53  1  0
 53 54  2  0
 54 55  1  0
 55 56  2  0
 56 57  1  0
 57 58  2  0
 58 59  1  0
 59 60  2  0
 60 61  1  0
 61 62  2  0
 49  3  1  0
 62 50  1  0
 17  5  1  0
 34 22  1  0
 48 36  1  0
 56 51  1  0
 62 57  1  0
 11  6  1  0
 17 12  1  0
 28 23  1  0
 34 29  1  0
 42 37  1  0
 48 43  1  0
  7 63  1  0
  8 64  1  0
  9 65  1  0
 10 66  1  0
 13 67  1  0
 14 68  1  0
 15 69  1  0
 16 70  1  0
 24 71  1  0
 25 72  1  0
 26 73  1  0
 27 74  1  0
 30 75  1  0
 31 76  1  0
 32 77  1  0
 33 78  1  0
 38 79  1  0
 39 80  1  0
 40 81  1  0
 41 82  1  0
 44 83  1  0
 45 84  1  0
 46 85  1  0
 47 86  1  0
 52 87  1  0
 53 88  1  0
 54 89  1  0
 55 90  1  0
 58 91  1  0
 59 92  1  0
 60 93  1  0
 61 94  1  0
M  END
