
     RDKit          3D

 33 33  0  0  0  0  0  0  0  0999 V2000
    4.2279   -0.4643   -2.7977 F   0  0  0  0  0  0  0  0  0  0  0  0
    4.9355   -0.4042   -1.6037 C   0  0  0  0  0  0  0  0  0  0  0  0
    6.0473   -1.2018   -1.7709 F   0  0  0  0  0  0  0  0  0  0  0  0
    5.2568    0.9212   -1.3937 F   0  0  0  0  0  0  0  0  0  0  0  0
    4.0729   -0.9372   -0.4580 C   0  0  0  0  0  0  0  0  0  0  0  0
    4.7708   -0.8752    0.7055 F   0  0  0  0  0  0  0  0  0  0  0  0
    3.6914   -2.2249   -0.7790 F   0  0  0  0  0  0  0  0  0  0  0  0
    2.7819   -0.1073   -0.4137 C   0  0  0  0  0  0  0  0  0  0  0  0
    2.2168   -0.3294   -1.6818 F   0  0  0  0  0  0  0  0  0  0  0  0
    3.0542    1.2271   -0.3130 F   0  0  0  0  0  0  0  0  0  0  0  0
    1.8962   -0.5538    0.7007 C   0  0  0  0  0  0  0  0  0  0  0  0
    1.5058   -1.8760    0.5785 F   0  0  0  0  0  0  0  0  0  0  0  0
    2.7303   -0.5635    1.8478 F   0  0  0  0  0  0  0  0  0  0  0  0
    0.7607    0.3362    1.0504 C   0  0  0  0  0  0  0  0  0  0  0  0
    0.0902   -0.2988    2.1152 F   0  0  0  0  0  0  0  0  0  0  0  0
    1.2359    1.5189    1.5905 F   0  0  0  0  0  0  0  0  0  0  0  0
   -0.2614    0.5739    0.0002 C   0  0  0  0  0  0  0  0  0  0  0  0
   -0.8483   -0.6384   -0.3775 F   0  0  0  0  0  0  0  0  0  0  0  0
    0.2513    1.1045   -1.1795 F   0  0  0  0  0  0  0  0  0  0  0  0
   -1.2935    1.5397    0.4776 C   0  0  0  0  0  0  0  0  0  0  0  0
   -2.0595    1.1334    1.6882 C   0  0  0  0  0  0  0  0  0  0  0  0
   -2.7679   -0.0782    1.5454 O   0  0  0  0  0  0  0  0  0  0  0  0
   -3.7580   -0.2933    0.6093 C   0  0  0  0  0  0  0  0  0  0  0  0
   -4.0948    0.6902   -0.2341 N   0  0  0  0  0  0  0  0  0  0  0  0
   -5.0120    0.5886   -1.1497 N   0  0  0  0  0  0  0  0  0  0  0  0
   -5.6588   -0.6074   -1.2369 C   0  0  0  0  0  0  0  0  0  0  0  0
   -6.8953   -0.7274   -2.4798 Cl  0  0  0  0  0  0  0  0  0  0  0  0
   -5.3441   -1.6016   -0.4116 N   0  0  0  0  0  0  0  0  0  0  0  0
   -4.4087   -1.4664    0.5066 N   0  0  0  0  0  0  0  0  0  0  0  0
   -0.7477    2.4833    0.7473 H   0  0  0  0  0  0  0  0  0  0  0  0
   -2.0101    1.7779   -0.3392 H   0  0  0  0  0  0  0  0  0  0  0  0
   -2.8603    1.9395    1.8171 H   0  0  0  0  0  0  0  0  0  0  0  0
   -1.5056    1.1833    2.6394 H   0  0  0  0  0  0  0  0  0  0  0  0
  1  2  1  0
  2  3  1  0
  2  4  1  0
  2  5  1  0
  5  6  1  0
  5  7  1  0
  5  8  1  0
  8  9  1  0
  8 10  1  0
  8 11  1  0
 11 12  1  0
 11 13  1  0
 11 14  1  0
 14 15  1  0
 14 16  1  0
 14 17  1  0
 17 18  1  0
 17 19  1  0
 17 20  1  0
 20 21  1  0
 21 22  1  0
 22 23  1  0
 23 24  2  0
 24 25  1  0
 25 26  2  0
 26 27  1  0
 26 28  1  0
 28 29  2  0
 29 23  1  0
 20 30  1  0
 20 31  1  0
 21 32  1  0
 21 33  1  0
M  END
