
     RDKit          3D

 26 28  0  0  0  0  0  0  0  0999 V2000
   -3.1683   -2.2587    0.2647 C   0  0  0  0  0  0  0  0  0  0  0  0
   -2.3272   -1.0705    0.0972 N   0  0  0  0  0  0  0  0  0  0  0  0
   -1.0124   -1.1331    0.1394 N   0  0  0  0  0  0  0  0  0  0  0  0
   -0.1937   -0.0901   -0.0056 C   0  0  0  0  0  0  0  0  0  0  0  0
    1.2645   -0.1916    0.0461 C   0  0  0  0  0  0  0  0  0  0  0  0
    1.9385   -1.1929   -0.6232 C   0  0  0  0  0  0  0  0  0  0  0  0
    3.3118   -1.2430   -0.5415 C   0  0  0  0  0  0  0  0  0  0  0  0
    4.0657   -0.3392    0.1799 C   0  0  0  0  0  0  0  0  0  0  0  0
    3.3673    0.6615    0.8466 C   0  0  0  0  0  0  0  0  0  0  0  0
    1.9976    0.7314    0.7796 C   0  0  0  0  0  0  0  0  0  0  0  0
   -0.7724    1.1521   -0.2164 C   0  0  0  0  0  0  0  0  0  0  0  0
   -0.2195    2.3660   -0.3950 N   0  0  0  0  0  0  0  0  0  0  0  0
   -1.2128    3.2178   -0.5541 N   0  0  0  0  0  0  0  0  0  0  0  0
   -2.3799    2.5920   -0.4836 N   0  0  0  0  0  0  0  0  0  0  0  0
   -2.1453    1.2800   -0.2703 C   0  0  0  0  0  0  0  0  0  0  0  0
   -2.8919    0.1458   -0.1090 C   0  0  0  0  0  0  0  0  0  0  0  0
   -4.1534    0.2388   -0.1547 O   0  0  0  0  0  0  0  0  0  0  0  0
   -3.8203   -2.1500    1.1603 H   0  0  0  0  0  0  0  0  0  0  0  0
   -2.4827   -3.1098    0.4546 H   0  0  0  0  0  0  0  0  0  0  0  0
   -3.8252   -2.4283   -0.6023 H   0  0  0  0  0  0  0  0  0  0  0  0
    1.3580   -1.9062   -1.1913 H   0  0  0  0  0  0  0  0  0  0  0  0
    3.8394   -2.0284   -1.0665 H   0  0  0  0  0  0  0  0  0  0  0  0
    5.1421   -0.3835    0.2403 H   0  0  0  0  0  0  0  0  0  0  0  0
    3.9317    1.3807    1.4176 H   0  0  0  0  0  0  0  0  0  0  0  0
    1.4237    1.5147    1.2992 H   0  0  0  0  0  0  0  0  0  0  0  0
   -1.0353    4.2446   -0.7122 H   0  0  0  0  0  0  0  0  0  0  0  0
  1  2  1  0
  2  3  1  0
  3  4  2  0
  4  5  1  0
  5  6  2  0
  6  7  1  0
  7  8  2  0
  8  9  1  0
  9 10  2  0
  4 11  1  0
 11 12  2  0
 12 13  1  0
 13 14  1  0
 14 15  2  0
 15 16  1  0
 16 17  2  0
 16  2  1  0
 10  5  1  0
 15 11  1  0
  1 18  1  0
  1 19  1  0
  1 20  1  0
  6 21  1  0
  7 22  1  0
  8 23  1  0
  9 24  1  0
 10 25  1  0
 13 26  1  0
M  END
