
     RDKit          3D

 29 31  0  0  0  0  0  0  0  0999 V2000
    0.9304    1.9872   -1.7230 C   0  0  0  0  0  0  0  0  0  0  0  0
    0.0460    1.0148   -1.0067 C   0  0  0  0  0  0  0  0  0  0  0  0
   -0.1203   -0.3231   -1.3014 C   0  0  0  0  0  0  0  0  0  0  0  0
    0.5037   -1.0646   -2.3376 N   0  0  0  0  0  0  0  0  0  0  0  0
    1.6547   -1.5247   -2.2204 N   0  0  0  0  0  0  0  0  0  0  0  0
    2.3743   -1.2948   -0.9904 C   0  0  0  0  0  0  0  0  0  0  0  0
    1.8927   -0.9785    0.2056 N   0  0  0  0  0  0  0  0  0  0  0  0
    2.6768   -0.8134    1.1789 N   0  0  0  0  0  0  0  0  0  0  0  0
    3.9876   -0.9559    1.0091 C   0  0  0  0  0  0  0  0  0  0  0  0
    4.0510   -1.3501   -0.6626 S   0  0  0  0  0  0  0  0  0  0  0  0
   -1.0205   -0.8415   -0.3971 C   0  0  0  0  0  0  0  0  0  0  0  0
   -1.5824   -2.0858   -0.1750 C   0  0  0  0  0  0  0  0  0  0  0  0
   -2.4856   -2.3163    0.8401 C   0  0  0  0  0  0  0  0  0  0  0  0
   -2.8642   -1.2953    1.6812 C   0  0  0  0  0  0  0  0  0  0  0  0
   -2.3141   -0.0495    1.4739 C   0  0  0  0  0  0  0  0  0  0  0  0
   -1.4028    0.1829    0.4497 C   0  0  0  0  0  0  0  0  0  0  0  0
   -0.7334    1.2799    0.0417 N   0  0  0  0  0  0  0  0  0  0  0  0
   -0.8468    2.5809    0.6636 C   0  0  0  0  0  0  0  0  0  0  0  0
    0.3714    2.8953   -2.0404 H   0  0  0  0  0  0  0  0  0  0  0  0
    1.3590    1.5353   -2.6244 H   0  0  0  0  0  0  0  0  0  0  0  0
    1.6938    2.3359   -0.9919 H   0  0  0  0  0  0  0  0  0  0  0  0
    4.7935   -0.8457    1.7539 H   0  0  0  0  0  0  0  0  0  0  0  0
   -1.2560   -2.8745   -0.8660 H   0  0  0  0  0  0  0  0  0  0  0  0
   -2.8935   -3.3069    0.9689 H   0  0  0  0  0  0  0  0  0  0  0  0
   -3.5819   -1.4961    2.4811 H   0  0  0  0  0  0  0  0  0  0  0  0
   -2.5846    0.7817    2.1126 H   0  0  0  0  0  0  0  0  0  0  0  0
    0.1444    2.9853    0.9611 H   0  0  0  0  0  0  0  0  0  0  0  0
   -1.3175    3.2771   -0.0579 H   0  0  0  0  0  0  0  0  0  0  0  0
   -1.4758    2.5603    1.5733 H   0  0  0  0  0  0  0  0  0  0  0  0
  1  2  1  0
  2  3  2  0
  3  4  1  0
  4  5  2  3
  5  6  1  0
  6  7  2  0
  7  8  1  0
  8  9  2  0
  9 10  1  0
  3 11  1  0
 11 12  2  0
 12 13  1  0
 13 14  2  0
 14 15  1  0
 15 16  2  0
 16 17  1  0
 17 18  1  0
 17  2  1  0
 10  6  1  0
 16 11  1  0
  1 19  1  0
  1 20  1  0
  1 21  1  0
  9 22  1  0
 12 23  1  0
 13 24  1  0
 14 25  1  0
 15 26  1  0
 18 27  1  0
 18 28  1  0
 18 29  1  0
M  END
