
     RDKit          3D

 85 89  0  0  0  0  0  0  0  0999 V2000
   -6.7139    3.4911   -3.7566 C   0  0  0  0  0  0  0  0  0  0  0  0
   -6.1714    2.3276   -2.9711 C   0  0  0  0  0  0  0  0  0  0  0  0
   -6.3531    2.6400   -1.5744 O   0  0  0  0  0  0  0  0  0  0  0  0
   -5.9331    1.7249   -0.6081 C   0  0  0  0  0  0  0  0  0  0  0  0
   -5.4150    0.6746   -1.0587 O   0  0  0  0  0  0  0  0  0  0  0  0
   -6.0574    1.9118    0.8234 C   0  0  0  0  0  0  0  0  0  0  0  0
   -6.6469    3.0857    1.3103 C   0  0  0  0  0  0  0  0  0  0  0  0
   -6.7580    3.2368    2.6746 C   0  0  0  0  0  0  0  0  0  0  0  0
   -6.3030    2.2626    3.5300 C   0  0  0  0  0  0  0  0  0  0  0  0
   -5.7153    1.0904    3.0407 C   0  0  0  0  0  0  0  0  0  0  0  0
   -5.5980    0.9281    1.6734 C   0  0  0  0  0  0  0  0  0  0  0  0
   -4.9954   -0.2578    1.0768 C   0  0  0  0  0  0  0  0  0  0  0  0
   -5.7213   -1.3660    0.7427 C   0  0  0  0  0  0  0  0  0  0  0  0
   -7.0661   -1.4382    0.9821 C   0  0  0  0  0  0  0  0  0  0  0  0
   -7.7850   -2.5914    0.6292 C   0  0  0  0  0  0  0  0  0  0  0  0
   -7.1625   -3.6691    0.0393 C   0  0  0  0  0  0  0  0  0  0  0  0
   -7.7737   -4.7267   -0.2939 O   0  0  0  0  0  0  0  0  0  0  0  0
   -5.7958   -3.6322   -0.2202 C   0  0  0  0  0  0  0  0  0  0  0  0
   -5.0559   -2.5010    0.1189 C   0  0  0  0  0  0  0  0  0  0  0  0
   -3.7755   -2.3942   -0.0923 O   0  0  0  0  0  0  0  0  0  0  0  0
   -3.0432   -1.3660    0.2054 C   0  0  0  0  0  0  0  0  0  0  0  0
   -1.6701   -1.3855   -0.0799 C   0  0  0  0  0  0  0  0  0  0  0  0
   -0.8815   -0.2988    0.2343 C   0  0  0  0  0  0  0  0  0  0  0  0
    0.4646   -0.3270   -0.0556 O   0  0  0  0  0  0  0  0  0  0  0  0
    1.3504   -1.3462    0.1756 C   0  0  0  0  0  0  0  0  0  0  0  0
    0.8857   -2.3918    0.7136 O   0  0  0  0  0  0  0  0  0  0  0  0
    2.7771   -1.2994   -0.1630 C   0  0  2  0  0  0  0  0  0  0  0  0
    3.0914   -0.5887   -1.4613 C   0  0  0  0  0  0  0  0  0  0  0  0
    4.9084   -0.6921   -1.6330 S   0  0  0  0  0  0  0  0  0  0  0  0
    5.4918    0.2895   -3.0444 C   0  0  0  0  0  0  0  0  0  0  0  0
    5.2967    1.7322   -2.7535 C   0  0  0  0  0  0  0  0  0  0  0  0
    6.3091    2.4442   -2.1233 C   0  0  0  0  0  0  0  0  0  0  0  0
    6.1667    3.7631   -1.8311 C   0  0  0  0  0  0  0  0  0  0  0  0
    5.0037    4.4352   -2.1526 C   0  0  0  0  0  0  0  0  0  0  0  0
    4.8338    5.8693   -1.8382 C   0  0  0  0  0  0  0  0  0  0  0  0
    3.9858    3.7326   -2.7825 C   0  0  0  0  0  0  0  0  0  0  0  0
    4.1599    2.3923   -3.0687 C   0  0  0  0  0  0  0  0  0  0  0  0
    3.5167   -2.4983   -0.0013 N   0  0  0  0  0  0  0  0  0  0  0  0
    4.6313   -2.6660    0.8447 C   0  0  0  0  0  0  0  0  0  0  0  0
    5.0019   -1.6720    1.5224 O   0  0  0  0  0  0  0  0  0  0  0  0
    5.3449   -3.8302    0.9850 O   0  0  0  0  0  0  0  0  0  0  0  0
    6.4642   -3.9321    1.8494 C   0  0  0  0  0  0  0  0  0  0  0  0
    7.0023   -5.3400    1.7545 C   0  0  0  0  0  0  0  0  0  0  0  0
    7.5826   -3.0092    1.3854 C   0  0  0  0  0  0  0  0  0  0  0  0
    6.0912   -3.6610    3.2905 C   0  0  0  0  0  0  0  0  0  0  0  0
   -1.4917    0.7964    0.8346 C   0  0  0  0  0  0  0  0  0  0  0  0
   -2.8315    0.8080    1.1079 C   0  0  0  0  0  0  0  0  0  0  0  0
   -3.6285   -0.2703    0.7975 C   0  0  0  0  0  0  0  0  0  0  0  0
   -7.8120    3.4390   -3.8834 H   0  0  0  0  0  0  0  0  0  0  0  0
   -6.5026    4.4709   -3.2677 H   0  0  0  0  0  0  0  0  0  0  0  0
   -6.2415    3.5480   -4.7667 H   0  0  0  0  0  0  0  0  0  0  0  0
   -6.7433    1.4291   -3.2435 H   0  0  0  0  0  0  0  0  0  0  0  0
   -5.0965    2.1708   -3.1481 H   0  0  0  0  0  0  0  0  0  0  0  0
   -7.0000    3.8355    0.6296 H   0  0  0  0  0  0  0  0  0  0  0  0
   -7.2063    4.1320    3.0619 H   0  0  0  0  0  0  0  0  0  0  0  0
   -6.4147    2.4329    4.5885 H   0  0  0  0  0  0  0  0  0  0  0  0
   -5.3604    0.3260    3.7104 H   0  0  0  0  0  0  0  0  0  0  0  0
   -7.5553   -0.5963    1.4395 H   0  0  0  0  0  0  0  0  0  0  0  0
   -8.8515   -2.6564    0.8146 H   0  0  0  0  0  0  0  0  0  0  0  0
   -5.3182   -4.4721   -0.6780 H   0  0  0  0  0  0  0  0  0  0  0  0
   -1.2483   -2.2788   -0.5545 H   0  0  0  0  0  0  0  0  0  0  0  0
    3.2257   -0.5825    0.6215 H   0  0  0  0  0  0  0  0  0  0  0  0
    2.8194    0.4899   -1.3685 H   0  0  0  0  0  0  0  0  0  0  0  0
    2.5743   -0.9950   -2.3257 H   0  0  0  0  0  0  0  0  0  0  0  0
    6.5673    0.0733   -3.1587 H   0  0  0  0  0  0  0  0  0  0  0  0
    4.9660   -0.0499   -3.9424 H   0  0  0  0  0  0  0  0  0  0  0  0
    7.2147    1.8889   -1.8795 H   0  0  0  0  0  0  0  0  0  0  0  0
    6.9520    4.3181   -1.3407 H   0  0  0  0  0  0  0  0  0  0  0  0
    5.1141    6.0633   -0.7747 H   0  0  0  0  0  0  0  0  0  0  0  0
    3.8211    6.2247   -2.0747 H   0  0  0  0  0  0  0  0  0  0  0  0
    5.5393    6.4359   -2.5115 H   0  0  0  0  0  0  0  0  0  0  0  0
    3.0593    4.2072   -3.0565 H   0  0  0  0  0  0  0  0  0  0  0  0
    3.3333    1.8880   -3.5536 H   0  0  0  0  0  0  0  0  0  0  0  0
    3.2170   -3.3557   -0.5566 H   0  0  0  0  0  0  0  0  0  0  0  0
    6.5739   -5.9707    2.5826 H   0  0  0  0  0  0  0  0  0  0  0  0
    6.8117   -5.8140    0.7673 H   0  0  0  0  0  0  0  0  0  0  0  0
    8.0826   -5.3003    1.9449 H   0  0  0  0  0  0  0  0  0  0  0  0
    8.2550   -2.7623    2.2464 H   0  0  0  0  0  0  0  0  0  0  0  0
    8.1763   -3.4911    0.5751 H   0  0  0  0  0  0  0  0  0  0  0  0
    7.2247   -2.0617    0.9746 H   0  0  0  0  0  0  0  0  0  0  0  0
    4.9878   -3.4660    3.3365 H   0  0  0  0  0  0  0  0  0  0  0  0
    6.6357   -2.7678    3.6832 H   0  0  0  0  0  0  0  0  0  0  0  0
    6.2938   -4.5332    3.9096 H   0  0  0  0  0  0  0  0  0  0  0  0
   -0.8196    1.6241    1.0640 H   0  0  0  0  0  0  0  0  0  0  0  0
   -3.2921    1.6709    1.5710 H   0  0  0  0  0  0  0  0  0  0  0  0
  1  2  1  0
  2  3  1  0
  3  4  1  0
  4  5  2  0
  4  6  1  0
  6  7  2  0
  7  8  1  0
  8  9  2  0
  9 10  1  0
 10 11  2  0
 11 12  1  0
 12 13  2  0
 13 14  1  0
 14 15  2  0
 15 16  1  0
 16 17  2  0
 16 18  1  0
 18 19  2  0
 19 20  1  0
 20 21  1  0
 21 22  2  0
 22 23  1  0
 23 24  1  0
 24 25  1  0
 25 26  2  0
 25 27  1  0
 27 28  1  0
 28 29  1  0
 29 30  1  0
 30 31  1  0
 31 32  2  0
 32 33  1  0
 33 34  2  0
 34 35  1  0
 34 36  1  0
 36 37  2  0
 27 38  1  0
 38 39  1  0
 39 40  2  0
 39 41  1  0
 41 42  1  0
 42 43  1  0
 42 44  1  0
 42 45  1  0
 23 46  2  0
 46 47  1  0
 47 48  2  0
 11  6  1  0
 48 12  1  0
 19 13  1  0
 48 21  1  0
 37 31  1  0
  1 49  1  0
  1 50  1  0
  1 51  1  0
  2 52  1  0
  2 53  1  0
  7 54  1  0
  8 55  1  0
  9 56  1  0
 10 57  1  0
 14 58  1  0
 15 59  1  0
 18 60  1  0
 22 61  1  0
 27 62  1  1
 28 63  1  0
 28 64  1  0
 30 65  1  0
 30 66  1  0
 32 67  1  0
 33 68  1  0
 35 69  1  0
 35 70  1  0
 35 71  1  0
 36 72  1  0
 37 73  1  0
 38 74  1  0
 43 75  1  0
 43 76  1  0
 43 77  1  0
 44 78  1  0
 44 79  1  0
 44 80  1  0
 45 81  1  0
 45 82  1  0
 45 83  1  0
 46 84  1  0
 47 85  1  0
M  END
