
     RDKit          3D

112119  0  0  0  0  0  0  0  0999 V2000
    6.1239   -4.9692   -1.9841 C   0  0  0  0  0  0  0  0  0  0  0  0
    5.6249   -3.6070   -1.6030 C   0  0  0  0  0  0  0  0  0  0  0  0
    5.2550   -2.6960   -2.5568 C   0  0  0  0  0  0  0  0  0  0  0  0
    4.8117   -1.4664   -2.1306 C   0  0  0  0  0  0  0  0  0  0  0  0
    4.7197   -1.1052   -0.8287 C   0  0  0  0  0  0  0  0  0  0  0  0
    4.1857    0.1376   -0.3232 N   0  0  0  0  0  0  0  0  0  0  0  0
    5.2299    1.1115   -0.0877 C   0  0  0  0  0  0  0  0  0  0  0  0
    6.5793    0.7203   -0.1224 C   0  0  0  0  0  0  0  0  0  0  0  0
    7.6302    1.5837    0.0656 C   0  0  0  0  0  0  0  0  0  0  0  0
    9.0363    1.1200    0.0356 C   0  0  0  0  0  0  0  0  0  0  0  0
    9.2095   -0.1204    0.9049 C   0  0  0  0  0  0  0  0  0  0  0  0
    9.9847    2.1954    0.5184 C   0  0  0  0  0  0  0  0  0  0  0  0
    9.4082    0.7261   -1.3795 C   0  0  0  0  0  0  0  0  0  0  0  0
    7.3574    2.8974    0.2962 C   0  0  0  0  0  0  0  0  0  0  0  0
    6.0616    3.3421    0.3393 C   0  0  0  0  0  0  0  0  0  0  0  0
    4.9959    2.4148    0.1400 C   0  0  0  0  0  0  0  0  0  0  0  0
    3.6511    3.0425    0.1316 C   0  0  0  0  0  0  0  0  0  0  0  0
    2.8783    0.3121    0.1507 C   0  0  0  0  0  0  0  0  0  0  0  0
    2.8112    0.6714    1.5178 C   0  0  0  0  0  0  0  0  0  0  0  0
    1.6035    0.7999    2.1089 C   0  0  0  0  0  0  0  0  0  0  0  0
    0.3980    0.6008    1.4613 C   0  0  0  0  0  0  0  0  0  0  0  0
   -0.8062    0.7359    2.1053 C   0  0  0  0  0  0  0  0  0  0  0  0
   -2.0026    0.5277    1.4512 C   0  0  0  0  0  0  0  0  0  0  0  0
   -1.9672    0.1753    0.1188 C   0  0  0  0  0  0  0  0  0  0  0  0
   -3.1427   -0.0444   -0.5451 C   0  0  0  0  0  0  0  0  0  0  0  0
   -4.4343    0.1332    0.0848 N   0  0  0  0  0  0  0  0  0  0  0  0
   -4.7097    1.4378    0.5308 C   0  0  0  0  0  0  0  0  0  0  0  0
   -3.8489    2.4823    0.1187 C   0  0  0  0  0  0  0  0  0  0  0  0
   -3.9870    3.7803    0.5166 C   0  0  0  0  0  0  0  0  0  0  0  0
   -4.9952    4.1585    1.3600 C   0  0  0  0  0  0  0  0  0  0  0  0
   -5.1291    5.5783    1.7827 C   0  0  0  0  0  0  0  0  0  0  0  0
   -5.8538    3.1703    1.7828 C   0  0  0  0  0  0  0  0  0  0  0  0
   -5.7131    1.8359    1.3757 C   0  0  0  0  0  0  0  0  0  0  0  0
   -6.6996    0.9054    1.9207 C   0  0  0  0  0  0  0  0  0  0  0  0
   -5.3255   -0.9449    0.1466 C   0  0  0  0  0  0  0  0  0  0  0  0
   -6.5597   -0.8745   -0.5399 C   0  0  0  0  0  0  0  0  0  0  0  0
   -7.4948   -1.8656   -0.5546 C   0  0  0  0  0  0  0  0  0  0  0  0
   -8.8035   -1.7561   -1.2844 C   0  0  0  0  0  0  0  0  0  0  0  0
   -9.1367   -3.1213   -1.8731 C   0  0  0  0  0  0  0  0  0  0  0  0
   -8.7792   -0.7319   -2.3615 C   0  0  0  0  0  0  0  0  0  0  0  0
   -9.9467   -1.4371   -0.3194 C   0  0  0  0  0  0  0  0  0  0  0  0
   -7.2105   -3.0311    0.1589 C   0  0  0  0  0  0  0  0  0  0  0  0
   -6.0136   -3.1103    0.8293 C   0  0  0  0  0  0  0  0  0  0  0  0
   -5.0617   -2.1077    0.8483 C   0  0  0  0  0  0  0  0  0  0  0  0
   -3.8029   -2.2730    1.6330 C   0  0  0  0  0  0  0  0  0  0  0  0
   -3.1639   -0.4083   -1.8713 C   0  0  0  0  0  0  0  0  0  0  0  0
   -1.9384   -0.5416   -2.5134 C   0  0  0  0  0  0  0  0  0  0  0  0
   -0.7542   -0.3208   -1.8549 C   0  0  0  0  0  0  0  0  0  0  0  0
    0.4561   -0.4544   -2.4921 C   0  0  0  0  0  0  0  0  0  0  0  0
    1.6376   -0.2383   -1.8219 C   0  0  0  0  0  0  0  0  0  0  0  0
    1.6996    0.1176   -0.4919 C   0  0  0  0  0  0  0  0  0  0  0  0
    0.4581    0.2539    0.1393 C   0  0  0  0  0  0  0  0  0  0  0  0
   -0.7552    0.0399   -0.5279 C   0  0  0  0  0  0  0  0  0  0  0  0
    5.1021   -2.0486    0.1335 C   0  0  0  0  0  0  0  0  0  0  0  0
    5.0229   -1.8062    1.5939 C   0  0  0  0  0  0  0  0  0  0  0  0
    5.5522   -3.2942   -0.2685 C   0  0  0  0  0  0  0  0  0  0  0  0
    6.7923   -5.3497   -1.2132 H   0  0  0  0  0  0  0  0  0  0  0  0
    5.3018   -5.6732   -2.1868 H   0  0  0  0  0  0  0  0  0  0  0  0
    6.7307   -4.8737   -2.9228 H   0  0  0  0  0  0  0  0  0  0  0  0
    5.3269   -2.9774   -3.5999 H   0  0  0  0  0  0  0  0  0  0  0  0
    4.5685   -0.7603   -2.9335 H   0  0  0  0  0  0  0  0  0  0  0  0
    6.7739   -0.3165   -0.3078 H   0  0  0  0  0  0  0  0  0  0  0  0
   10.2130   -0.0293    1.3873 H   0  0  0  0  0  0  0  0  0  0  0  0
    8.3996   -0.1716    1.6413 H   0  0  0  0  0  0  0  0  0  0  0  0
    9.2720   -1.0093    0.2621 H   0  0  0  0  0  0  0  0  0  0  0  0
   10.0557    2.9825   -0.2450 H   0  0  0  0  0  0  0  0  0  0  0  0
   11.0002    1.7396    0.5941 H   0  0  0  0  0  0  0  0  0  0  0  0
    9.6105    2.5739    1.4663 H   0  0  0  0  0  0  0  0  0  0  0  0
    8.4762    0.4417   -1.9258 H   0  0  0  0  0  0  0  0  0  0  0  0
   10.1364   -0.0991   -1.3341 H   0  0  0  0  0  0  0  0  0  0  0  0
    9.8410    1.6113   -1.9195 H   0  0  0  0  0  0  0  0  0  0  0  0
    8.1322    3.6563    0.4581 H   0  0  0  0  0  0  0  0  0  0  0  0
    5.8438    4.3866    0.5205 H   0  0  0  0  0  0  0  0  0  0  0  0
    3.7801    4.1106   -0.3436 H   0  0  0  0  0  0  0  0  0  0  0  0
    2.9510    2.5971   -0.5724 H   0  0  0  0  0  0  0  0  0  0  0  0
    3.2488    3.3089    1.1098 H   0  0  0  0  0  0  0  0  0  0  0  0
    3.6994    0.8487    2.1029 H   0  0  0  0  0  0  0  0  0  0  0  0
    1.5331    1.0805    3.1765 H   0  0  0  0  0  0  0  0  0  0  0  0
   -0.7887    1.0158    3.1665 H   0  0  0  0  0  0  0  0  0  0  0  0
   -2.8965    0.6527    2.0354 H   0  0  0  0  0  0  0  0  0  0  0  0
   -3.0341    2.2760   -0.5569 H   0  0  0  0  0  0  0  0  0  0  0  0
   -3.2862    4.5438    0.1618 H   0  0  0  0  0  0  0  0  0  0  0  0
   -5.7826    5.6949    2.6660 H   0  0  0  0  0  0  0  0  0  0  0  0
   -4.0966    5.9638    2.0049 H   0  0  0  0  0  0  0  0  0  0  0  0
   -5.4727    6.1810    0.9144 H   0  0  0  0  0  0  0  0  0  0  0  0
   -6.6655    3.4558    2.4565 H   0  0  0  0  0  0  0  0  0  0  0  0
   -6.3318   -0.0717    2.1937 H   0  0  0  0  0  0  0  0  0  0  0  0
   -7.0799    1.3509    2.9077 H   0  0  0  0  0  0  0  0  0  0  0  0
   -7.5887    0.9489    1.2516 H   0  0  0  0  0  0  0  0  0  0  0  0
   -6.7677    0.0299   -1.0917 H   0  0  0  0  0  0  0  0  0  0  0  0
   -8.3119   -3.5723   -2.4268 H   0  0  0  0  0  0  0  0  0  0  0  0
  -10.0199   -2.9395   -2.5561 H   0  0  0  0  0  0  0  0  0  0  0  0
   -9.5445   -3.7924   -1.0872 H   0  0  0  0  0  0  0  0  0  0  0  0
   -7.8338   -0.7175   -2.9076 H   0  0  0  0  0  0  0  0  0  0  0  0
   -9.6558   -0.9456   -3.0339 H   0  0  0  0  0  0  0  0  0  0  0  0
   -9.0101    0.2582   -1.8887 H   0  0  0  0  0  0  0  0  0  0  0  0
  -10.8243   -2.0990   -0.5121 H   0  0  0  0  0  0  0  0  0  0  0  0
   -9.6137   -1.6788    0.7231 H   0  0  0  0  0  0  0  0  0  0  0  0
  -10.1868   -0.3760   -0.3464 H   0  0  0  0  0  0  0  0  0  0  0  0
   -7.9460   -3.8179    0.1562 H   0  0  0  0  0  0  0  0  0  0  0  0
   -5.7603   -4.0063    1.3883 H   0  0  0  0  0  0  0  0  0  0  0  0
   -3.8598   -3.2664    2.1795 H   0  0  0  0  0  0  0  0  0  0  0  0
   -2.9152   -2.3773    0.9959 H   0  0  0  0  0  0  0  0  0  0  0  0
   -3.7354   -1.5387    2.4424 H   0  0  0  0  0  0  0  0  0  0  0  0
   -4.1108   -0.5784   -2.3572 H   0  0  0  0  0  0  0  0  0  0  0  0
   -1.9086   -0.8212   -3.5376 H   0  0  0  0  0  0  0  0  0  0  0  0
    0.4430   -0.7348   -3.5440 H   0  0  0  0  0  0  0  0  0  0  0  0
    2.5173   -0.3202   -2.3831 H   0  0  0  0  0  0  0  0  0  0  0  0
    5.4913   -0.8628    1.9099 H   0  0  0  0  0  0  0  0  0  0  0  0
    5.5985   -2.6062    2.1259 H   0  0  0  0  0  0  0  0  0  0  0  0
    3.9864   -1.9139    1.9938 H   0  0  0  0  0  0  0  0  0  0  0  0
    5.8556   -4.0453    0.4823 H   0  0  0  0  0  0  0  0  0  0  0  0
  1  2  1  0
  2  3  2  0
  3  4  1  0
  4  5  2  0
  5  6  1  0
  6  7  1  0
  7  8  2  0
  8  9  1  0
  9 10  1  0
 10 11  1  0
 10 12  1  0
 10 13  1  0
  9 14  2  0
 14 15  1  0
 15 16  2  0
 16 17  1  0
  6 18  1  0
 18 19  2  0
 19 20  1  0
 20 21  2  0
 21 22  1  0
 22 23  2  0
 23 24  1  0
 24 25  2  0
 25 26  1  0
 26 27  1  0
 27 28  2  0
 28 29  1  0
 29 30  2  0
 30 31  1  0
 30 32  1  0
 32 33  2  0
 33 34  1  0
 26 35  1  0
 35 36  2  0
 36 37  1  0
 37 38  1  0
 38 39  1  0
 38 40  1  0
 38 41  1  0
 37 42  2  0
 42 43  1  0
 43 44  2  0
 44 45  1  0
 25 46  1  0
 46 47  2  0
 47 48  1  0
 48 49  2  0
 49 50  1  0
 50 51  2  0
 51 52  1  0
 52 53  2  0
  5 54  1  0
 54 55  1  0
 54 56  2  0
 56  2  1  0
 16  7  1  0
 51 18  1  0
 52 21  1  0
 53 24  1  0
 33 27  1  0
 44 35  1  0
 53 48  1  0
  1 57  1  0
  1 58  1  0
  1 59  1  0
  3 60  1  0
  4 61  1  0
  8 62  1  0
 11 63  1  0
 11 64  1  0
 11 65  1  0
 12 66  1  0
 12 67  1  0
 12 68  1  0
 13 69  1  0
 13 70  1  0
 13 71  1  0
 14 72  1  0
 15 73  1  0
 17 74  1  0
 17 75  1  0
 17 76  1  0
 19 77  1  0
 20 78  1  0
 22 79  1  0
 23 80  1  0
 28 81  1  0
 29 82  1  0
 31 83  1  0
 31 84  1  0
 31 85  1  0
 32 86  1  0
 34 87  1  0
 34 88  1  0
 34 89  1  0
 36 90  1  0
 39 91  1  0
 39 92  1  0
 39 93  1  0
 40 94  1  0
 40 95  1  0
 40 96  1  0
 41 97  1  0
 41 98  1  0
 41 99  1  0
 42100  1  0
 43101  1  0
 45102  1  0
 45103  1  0
 45104  1  0
 46105  1  0
 47106  1  0
 49107  1  0
 50108  1  0
 55109  1  0
 55110  1  0
 55111  1  0
 56112  1  0
M  END
