
     RDKit          3D

 47 50  0  0  0  0  0  0  0  0999 V2000
    3.3263    0.4038    0.8794 C   0  0  0  0  0  0  0  0  0  0  0  0
    4.2230    0.1402   -0.0432 C   0  0  0  0  0  0  0  0  0  0  0  0
    5.6669    0.3700    0.1076 C   0  0  0  0  0  0  0  0  0  0  0  0
    6.4612    0.0253   -0.9877 C   0  0  0  0  0  0  0  0  0  0  0  0
    7.8186    0.2079   -0.9291 C   0  0  0  0  0  0  0  0  0  0  0  0
    8.3730    0.7292    0.2120 C   0  0  0  0  0  0  0  0  0  0  0  0
    7.6144    1.0610    1.2645 N   0  0  0  0  0  0  0  0  0  0  0  0
    6.2676    0.8806    1.2085 C   0  0  0  0  0  0  0  0  0  0  0  0
    1.8970    0.1910    0.7666 C   0  0  0  0  0  0  0  0  0  0  0  0
    1.0572    0.5104    1.8117 C   0  0  0  0  0  0  0  0  0  0  0  0
   -0.3033    0.3140    1.7220 C   0  0  0  0  0  0  0  0  0  0  0  0
   -0.9173   -0.2128    0.5789 C   0  0  0  0  0  0  0  0  0  0  0  0
   -2.3036   -0.2791    0.4517 N   0  0  0  0  0  0  0  0  0  0  0  0
   -3.0944   -1.4561    0.1715 C   0  0  0  0  0  0  0  0  0  0  0  0
   -2.8562   -2.4015   -0.7524 C   0  0  0  0  0  0  0  0  0  0  0  0
   -3.7094   -3.5128   -0.9253 C   0  0  0  0  0  0  0  0  0  0  0  0
   -4.8228   -3.6658   -0.1468 C   0  0  0  0  0  0  0  0  0  0  0  0
   -5.0811   -2.7089    0.8022 C   0  0  0  0  0  0  0  0  0  0  0  0
   -4.2499   -1.6341    0.9646 C   0  0  0  0  0  0  0  0  0  0  0  0
   -3.1040    0.9317    0.4239 C   0  0  0  0  0  0  0  0  0  0  0  0
   -2.9399    1.9725    1.2637 C   0  0  0  0  0  0  0  0  0  0  0  0
   -3.7516    3.1240    1.1786 C   0  0  0  0  0  0  0  0  0  0  0  0
   -4.7163    3.1747    0.2259 C   0  0  0  0  0  0  0  0  0  0  0  0
   -4.9012    2.1119   -0.6495 C   0  0  0  0  0  0  0  0  0  0  0  0
   -4.1100    1.0006   -0.5592 C   0  0  0  0  0  0  0  0  0  0  0  0
   -0.0614   -0.5342   -0.4762 C   0  0  0  0  0  0  0  0  0  0  0  0
    1.3093   -0.3243   -0.3496 C   0  0  0  0  0  0  0  0  0  0  0  0
    3.7241    0.8263    1.8194 H   0  0  0  0  0  0  0  0  0  0  0  0
    3.8278   -0.2770   -0.9708 H   0  0  0  0  0  0  0  0  0  0  0  0
    6.0352   -0.3867   -1.8932 H   0  0  0  0  0  0  0  0  0  0  0  0
    8.4274   -0.0655   -1.7919 H   0  0  0  0  0  0  0  0  0  0  0  0
    9.4565    0.8586    0.2176 H   0  0  0  0  0  0  0  0  0  0  0  0
    5.6649    1.1536    2.0684 H   0  0  0  0  0  0  0  0  0  0  0  0
    1.5275    0.9239    2.7059 H   0  0  0  0  0  0  0  0  0  0  0  0
   -0.8885    0.5317    2.6233 H   0  0  0  0  0  0  0  0  0  0  0  0
   -1.9927   -2.3168   -1.3872 H   0  0  0  0  0  0  0  0  0  0  0  0
   -3.4343   -4.2234   -1.6970 H   0  0  0  0  0  0  0  0  0  0  0  0
   -5.4699   -4.5109   -0.2796 H   0  0  0  0  0  0  0  0  0  0  0  0
   -5.9670   -2.8403    1.4140 H   0  0  0  0  0  0  0  0  0  0  0  0
   -4.4426   -0.8575    1.7210 H   0  0  0  0  0  0  0  0  0  0  0  0
   -2.1825    1.9827    2.0352 H   0  0  0  0  0  0  0  0  0  0  0  0
   -3.5674    3.9371    1.8922 H   0  0  0  0  0  0  0  0  0  0  0  0
   -5.3472    4.0503    0.1472 H   0  0  0  0  0  0  0  0  0  0  0  0
   -5.6737    2.1742   -1.3985 H   0  0  0  0  0  0  0  0  0  0  0  0
   -4.2226    0.1392   -1.2307 H   0  0  0  0  0  0  0  0  0  0  0  0
   -0.4567   -0.9127   -1.4031 H   0  0  0  0  0  0  0  0  0  0  0  0
    1.8900   -0.6061   -1.2214 H   0  0  0  0  0  0  0  0  0  0  0  0
  1  2  2  0
  2  3  1  0
  3  4  2  0
  4  5  1  0
  5  6  2  0
  6  7  1  0
  7  8  2  0
  1  9  1  0
  9 10  2  0
 10 11  1  0
 11 12  2  0
 12 13  1  0
 13 14  1  0
 14 15  2  0
 15 16  1  0
 16 17  2  0
 17 18  1  0
 18 19  2  0
 13 20  1  0
 20 21  2  0
 21 22  1  0
 22 23  2  0
 23 24  1  0
 24 25  2  0
 12 26  1  0
 26 27  2  0
  8  3  1  0
 27  9  1  0
 19 14  1  0
 25 20  1  0
  1 28  1  0
  2 29  1  0
  4 30  1  0
  5 31  1  0
  6 32  1  0
  8 33  1  0
 10 34  1  0
 11 35  1  0
 15 36  1  0
 16 37  1  0
 17 38  1  0
 18 39  1  0
 19 40  1  0
 21 41  1  0
 22 42  1  0
 23 43  1  0
 24 44  1  0
 25 45  1  0
 26 46  1  0
 27 47  1  0
M  END
