
     RDKit          3D

 35 39  0  0  0  0  0  0  0  0999 V2000
    2.2031    2.8049    0.4052 C   0  0  0  0  0  0  0  0  0  0  0  0
    1.0518    1.8989    0.2910 C   0  0  0  0  0  0  0  0  0  0  0  0
   -0.2382    2.3660    0.4214 C   0  0  0  0  0  0  0  0  0  0  0  0
   -1.3224    1.5353    0.3178 C   0  0  0  0  0  0  0  0  0  0  0  0
   -2.6538    1.7805    0.4110 N   0  0  0  0  0  0  0  0  0  0  0  0
   -3.3287    0.6336    0.2368 C   0  0  0  0  0  0  0  0  0  0  0  0
   -4.6851    0.3709    0.2425 C   0  0  0  0  0  0  0  0  0  0  0  0
   -5.1122   -0.9298    0.0321 C   0  0  0  0  0  0  0  0  0  0  0  0
   -4.2109   -1.9478   -0.1795 C   0  0  0  0  0  0  0  0  0  0  0  0
   -2.8588   -1.6942   -0.1866 C   0  0  0  0  0  0  0  0  0  0  0  0
   -2.4217   -0.4132    0.0200 C   0  0  0  0  0  0  0  0  0  0  0  0
   -1.1745    0.1856    0.0770 C   0  0  0  0  0  0  0  0  0  0  0  0
    0.1219   -0.2950   -0.0559 C   0  0  0  0  0  0  0  0  0  0  0  0
    0.5991   -1.5167   -0.2869 N   0  0  0  0  0  0  0  0  0  0  0  0
    1.9689   -1.4826   -0.3329 C   0  0  0  0  0  0  0  0  0  0  0  0
    2.8828   -2.4832   -0.5420 C   0  0  0  0  0  0  0  0  0  0  0  0
    4.2202   -2.1660   -0.5375 C   0  0  0  0  0  0  0  0  0  0  0  0
    4.6673   -0.8626   -0.3273 C   0  0  0  0  0  0  0  0  0  0  0  0
    3.7400    0.1349   -0.1183 C   0  0  0  0  0  0  0  0  0  0  0  0
    2.3995   -0.1907   -0.1242 C   0  0  0  0  0  0  0  0  0  0  0  0
    1.2364    0.5592    0.0506 C   0  0  0  0  0  0  0  0  0  0  0  0
    2.8406    2.6300    1.2944 H   0  0  0  0  0  0  0  0  0  0  0  0
    2.7694    2.9470   -0.5372 H   0  0  0  0  0  0  0  0  0  0  0  0
    1.7889    3.8522    0.6022 H   0  0  0  0  0  0  0  0  0  0  0  0
   -0.3726    3.4163    0.6095 H   0  0  0  0  0  0  0  0  0  0  0  0
   -3.0453    2.7372    0.5925 H   0  0  0  0  0  0  0  0  0  0  0  0
   -5.4190    1.1541    0.4068 H   0  0  0  0  0  0  0  0  0  0  0  0
   -6.1866   -1.1441    0.0355 H   0  0  0  0  0  0  0  0  0  0  0  0
   -4.6149   -2.9533   -0.3393 H   0  0  0  0  0  0  0  0  0  0  0  0
   -2.1830   -2.5006   -0.3527 H   0  0  0  0  0  0  0  0  0  0  0  0
    0.0308   -2.3798   -0.4157 H   0  0  0  0  0  0  0  0  0  0  0  0
    2.5344   -3.4972   -0.7054 H   0  0  0  0  0  0  0  0  0  0  0  0
    4.9239   -2.9846   -0.7068 H   0  0  0  0  0  0  0  0  0  0  0  0
    5.7402   -0.6900   -0.3380 H   0  0  0  0  0  0  0  0  0  0  0  0
    4.1083    1.1248    0.0402 H   0  0  0  0  0  0  0  0  0  0  0  0
  1  2  1  0
  2  3  2  0
  3  4  1  0
  4  5  1  0
  5  6  1  0
  6  7  2  0
  7  8  1  0
  8  9  2  0
  9 10  1  0
 10 11  2  0
 11 12  1  0
 12 13  1  0
 13 14  1  0
 14 15  1  0
 15 16  2  0
 16 17  1  0
 17 18  2  0
 18 19  1  0
 19 20  2  0
 20 21  1  0
 21  2  1  0
 12  4  2  0
 21 13  2  0
 11  6  1  0
 20 15  1  0
  1 22  1  0
  1 23  1  0
  1 24  1  0
  3 25  1  0
  5 26  1  0
  7 27  1  0
  8 28  1  0
  9 29  1  0
 10 30  1  0
 14 31  1  0
 16 32  1  0
 17 33  1  0
 18 34  1  0
 19 35  1  0
M  END
