
     RDKit          3D

 34 37  0  0  0  0  0  0  0  0999 V2000
    5.1380   -0.0978    0.0041 C   0  0  0  0  0  0  0  0  0  0  0  0
    3.6353   -0.0355   -0.0011 C   0  0  0  0  0  0  0  0  0  0  0  0
    2.9485   -1.0295   -0.6229 C   0  0  0  0  0  0  0  0  0  0  0  0
    1.5453   -0.9862   -0.6364 C   0  0  0  0  0  0  0  0  0  0  0  0
    0.8623    0.0417   -0.0324 C   0  0  0  0  0  0  0  0  0  0  0  0
   -0.5840    0.0628   -0.0314 C   0  0  0  0  0  0  0  0  0  0  0  0
   -1.2741    1.1542   -0.3742 C   0  0  0  0  0  0  0  0  0  0  0  0
   -0.8262    2.4954   -0.8039 C   0  0  0  0  0  0  0  0  0  0  0  0
   -1.8985    3.2296   -1.0242 C   0  0  0  0  0  0  0  0  0  0  0  0
   -3.0594    2.4091   -0.7520 C   0  0  0  0  0  0  0  0  0  0  0  0
   -2.6813    1.1942   -0.3718 N   0  0  0  0  0  4  0  0  0  0  0  0
   -3.5299    0.0045    0.0119 B   0  0  0  0  0  4  0  0  0  0  0  0
   -4.4675    0.3573    1.0733 F   0  0  0  0  0  0  0  0  0  0  0  0
   -4.3697   -0.3183   -1.1625 F   0  0  0  0  0  0  0  0  0  0  0  0
   -2.6785   -1.1880    0.4026 N   0  0  0  0  0  0  0  0  0  0  0  0
   -3.0960   -2.4300    0.8263 C   0  0  0  0  0  0  0  0  0  0  0  0
   -1.9770   -3.1681    1.0599 C   0  0  0  0  0  0  0  0  0  0  0  0
   -0.8918   -2.3716    0.7777 C   0  0  0  0  0  0  0  0  0  0  0  0
   -1.3548   -1.1182    0.3617 C   0  0  0  0  0  0  0  0  0  0  0  0
    1.5891    1.0278    0.5861 C   0  0  0  0  0  0  0  0  0  0  0  0
    2.9903    0.9923    0.6037 C   0  0  0  0  0  0  0  0  0  0  0  0
    5.5537    0.3488   -0.9180 H   0  0  0  0  0  0  0  0  0  0  0  0
    5.4777   -1.1557    0.1316 H   0  0  0  0  0  0  0  0  0  0  0  0
    5.5237    0.4532    0.8727 H   0  0  0  0  0  0  0  0  0  0  0  0
    3.4279   -1.8646   -1.1137 H   0  0  0  0  0  0  0  0  0  0  0  0
    1.0132   -1.7697   -1.1386 H   0  0  0  0  0  0  0  0  0  0  0  0
    0.2215    2.7720   -0.9093 H   0  0  0  0  0  0  0  0  0  0  0  0
   -1.8687    4.2768   -1.3551 H   0  0  0  0  0  0  0  0  0  0  0  0
   -4.0874    2.7252   -0.8411 H   0  0  0  0  0  0  0  0  0  0  0  0
   -4.1411   -2.7359    0.9413 H   0  0  0  0  0  0  0  0  0  0  0  0
   -1.9433   -4.2223    1.4139 H   0  0  0  0  0  0  0  0  0  0  0  0
    0.1521   -2.6484    0.8625 H   0  0  0  0  0  0  0  0  0  0  0  0
    1.0891    1.8311    1.0687 H   0  0  0  0  0  0  0  0  0  0  0  0
    3.5615    1.7639    1.0906 H   0  0  0  0  0  0  0  0  0  0  0  0
  1  2  1  0
  2  3  2  0
  3  4  1  0
  4  5  2  0
  5  6  1  0
  6  7  2  0
  7  8  1  0
  8  9  2  0
  9 10  1  0
 10 11  2  0
 11 12  1  0
 12 13  1  0
 12 14  1  0
 12 15  1  0
 15 16  1  0
 16 17  2  0
 17 18  1  0
 18 19  2  0
  5 20  1  0
 20 21  2  0
 21  2  1  0
 19  6  1  0
 11  7  1  0
 19 15  1  0
  1 22  1  0
  1 23  1  0
  1 24  1  0
  3 25  1  0
  4 26  1  0
  8 27  1  0
  9 28  1  0
 10 29  1  0
 16 30  1  0
 17 31  1  0
 18 32  1  0
 20 33  1  0
 21 34  1  0
M  CHG  2  11   1  12  -1
M  END
