
     RDKit          3D

 59 65  0  0  0  0  0  0  0  0999 V2000
   -6.3383   -0.5853   -0.2253 C   0  0  0  0  0  0  0  0  0  0  0  0
   -5.2312    0.2230   -0.8944 C   0  0  0  0  0  0  0  0  0  0  0  0
   -5.8985    1.1580   -1.9022 C   0  0  0  0  0  0  0  0  0  0  0  0
   -4.3506   -0.6667   -1.6332 C   0  0  0  0  0  0  0  0  0  0  0  0
   -4.9467   -1.4619   -2.6340 C   0  0  0  0  0  0  0  0  0  0  0  0
   -4.1715   -2.3195   -3.3586 C   0  0  0  0  0  0  0  0  0  0  0  0
   -2.8216   -2.3966   -3.1033 C   0  0  0  0  0  0  0  0  0  0  0  0
   -2.2367   -1.6225   -2.1277 C   0  0  0  0  0  0  0  0  0  0  0  0
   -3.0120   -0.7374   -1.3742 C   0  0  0  0  0  0  0  0  0  0  0  0
   -2.3719    0.0457   -0.3675 N   0  0  0  0  0  0  0  0  0  0  0  0
   -0.9812   -0.0267   -0.1242 C   0  0  0  0  0  0  0  0  0  0  0  0
   -0.5377   -0.4059    1.1325 C   0  0  0  0  0  0  0  0  0  0  0  0
    0.7871   -0.4950    1.4807 C   0  0  0  0  0  0  0  0  0  0  0  0
    1.7238   -0.1878    0.5188 C   0  0  0  0  0  0  0  0  0  0  0  0
    3.1336   -0.2782    0.8761 C   0  0  0  0  0  0  0  0  0  0  0  0
    3.6229   -0.6397    2.0762 N   0  0  0  0  0  0  0  0  0  0  0  0
    4.9483   -0.6006    2.0076 N   0  0  0  0  0  4  0  0  0  0  0  0
    5.3047   -0.2167    0.7721 C   0  0  0  0  0  0  0  0  0  0  0  0
    4.1837   -0.0319    0.1197 O   0  0  0  0  0  0  0  0  0  0  0  0
    6.7141   -0.0767    0.3784 C   0  0  0  0  0  0  0  0  0  0  0  0
    7.0851    0.3206   -0.8989 C   0  0  0  0  0  0  0  0  0  0  0  0
    8.4241    0.4500   -1.2597 C   0  0  0  0  0  0  0  0  0  0  0  0
    9.3929    0.1771   -0.3265 C   0  0  0  0  0  0  0  0  0  0  0  0
    9.0718   -0.2224    0.9602 C   0  0  0  0  0  0  0  0  0  0  0  0
    7.7345   -0.3386    1.2778 C   0  0  0  0  0  0  0  0  0  0  0  0
    7.3712   -0.7341    2.5499 O   0  0  0  0  0  0  0  0  0  0  0  0
    6.0032   -0.9053    3.0483 B   0  0  0  0  0  4  0  0  0  0  0  0
    5.8614   -2.2901    3.5319 F   0  0  0  0  0  0  0  0  0  0  0  0
    5.8213   -0.0512    4.2351 F   0  0  0  0  0  0  0  0  0  0  0  0
    1.3277    0.1943   -0.7456 C   0  0  0  0  0  0  0  0  0  0  0  0
   -0.0120    0.2725   -1.0588 C   0  0  0  0  0  0  0  0  0  0  0  0
   -3.2036    0.9206    0.3698 C   0  0  0  0  0  0  0  0  0  0  0  0
   -2.6597    1.7320    1.3726 C   0  0  0  0  0  0  0  0  0  0  0  0
   -3.4565    2.5882    2.0917 C   0  0  0  0  0  0  0  0  0  0  0  0
   -4.8072    2.6740    1.8489 C   0  0  0  0  0  0  0  0  0  0  0  0
   -5.3497    1.8973    0.8828 C   0  0  0  0  0  0  0  0  0  0  0  0
   -4.5581    1.0236    0.1437 C   0  0  0  0  0  0  0  0  0  0  0  0
   -6.6105   -1.4518   -0.8308 H   0  0  0  0  0  0  0  0  0  0  0  0
   -5.9489   -0.8629    0.7859 H   0  0  0  0  0  0  0  0  0  0  0  0
   -7.2053    0.0854   -0.1046 H   0  0  0  0  0  0  0  0  0  0  0  0
   -6.9675    1.3156   -1.6186 H   0  0  0  0  0  0  0  0  0  0  0  0
   -5.3298    2.0830   -2.0258 H   0  0  0  0  0  0  0  0  0  0  0  0
   -5.9217    0.6299   -2.8741 H   0  0  0  0  0  0  0  0  0  0  0  0
   -6.0067   -1.4007   -2.8321 H   0  0  0  0  0  0  0  0  0  0  0  0
   -4.6078   -2.9566   -4.1507 H   0  0  0  0  0  0  0  0  0  0  0  0
   -2.2007   -3.0667   -3.6657 H   0  0  0  0  0  0  0  0  0  0  0  0
   -1.1773   -1.6685   -1.9048 H   0  0  0  0  0  0  0  0  0  0  0  0
   -1.2565   -0.6567    1.9145 H   0  0  0  0  0  0  0  0  0  0  0  0
    1.0970   -0.7964    2.4777 H   0  0  0  0  0  0  0  0  0  0  0  0
    6.2901    0.5244   -1.5990 H   0  0  0  0  0  0  0  0  0  0  0  0
    8.7053    0.7596   -2.2554 H   0  0  0  0  0  0  0  0  0  0  0  0
   10.4268    0.2758   -0.6015 H   0  0  0  0  0  0  0  0  0  0  0  0
    9.8623   -0.4278    1.6653 H   0  0  0  0  0  0  0  0  0  0  0  0
    2.0921    0.4282   -1.4760 H   0  0  0  0  0  0  0  0  0  0  0  0
   -0.3328    0.5704   -2.0436 H   0  0  0  0  0  0  0  0  0  0  0  0
   -1.5916    1.6874    1.5769 H   0  0  0  0  0  0  0  0  0  0  0  0
   -3.0584    3.2286    2.8760 H   0  0  0  0  0  0  0  0  0  0  0  0
   -5.4317    3.3739    2.4435 H   0  0  0  0  0  0  0  0  0  0  0  0
   -6.3930    1.9396    0.6694 H   0  0  0  0  0  0  0  0  0  0  0  0
  1  2  1  0
  2  3  1  0
  2  4  1  0
  4  5  2  0
  5  6  1  0
  6  7  2  0
  7  8  1  0
  8  9  2  0
  9 10  1  0
 10 11  1  0
 11 12  2  0
 12 13  1  0
 13 14  2  0
 14 15  1  0
 15 16  2  0
 16 17  1  0
 17 18  2  0
 18 19  1  0
 18 20  1  0
 20 21  2  0
 21 22  1  0
 22 23  2  0
 23 24  1  0
 24 25  2  0
 25 26  1  0
 26 27  1  0
 27 28  1  0
 27 29  1  0
 14 30  1  0
 30 31  2  0
 10 32  1  0
 32 33  2  0
 33 34  1  0
 34 35  2  0
 35 36  1  0
 36 37  2  0
 37  2  1  0
  9  4  1  0
 31 11  1  0
 37 32  1  0
 19 15  1  0
 25 20  1  0
 27 17  1  0
  1 38  1  0
  1 39  1  0
  1 40  1  0
  3 41  1  0
  3 42  1  0
  3 43  1  0
  5 44  1  0
  6 45  1  0
  7 46  1  0
  8 47  1  0
 12 48  1  0
 13 49  1  0
 21 50  1  0
 22 51  1  0
 23 52  1  0
 24 53  1  0
 30 54  1  0
 31 55  1  0
 33 56  1  0
 34 57  1  0
 35 58  1  0
 36 59  1  0
M  CHG  2  17   1  27  -1
M  END
