
     RDKit          3D

 84 93  0  0  0  0  0  0  0  0999 V2000
    5.6650    0.9336   -0.1156 C   0  0  0  0  0  0  0  0  0  0  0  0
    4.7574    0.0156    0.1243 C   0  0  0  0  0  0  0  0  0  0  0  0
    3.3180    0.2858    0.0465 C   0  0  0  0  0  0  0  0  0  0  0  0
    2.6723    1.4534   -0.2661 C   0  0  0  0  0  0  0  0  0  0  0  0
    1.3289    1.4290   -0.2620 C   0  0  0  0  0  0  0  0  0  0  0  0
    0.7257    0.2589    0.0488 C   0  0  0  0  0  0  0  0  0  0  0  0
   -0.7267   -0.0289    0.1261 C   0  0  0  0  0  0  0  0  0  0  0  0
   -1.3165   -1.2156    0.4396 C   0  0  0  0  0  0  0  0  0  0  0  0
   -2.6540   -1.2547    0.4531 C   0  0  0  0  0  0  0  0  0  0  0  0
   -3.3193   -0.0964    0.1501 C   0  0  0  0  0  0  0  0  0  0  0  0
   -4.7692    0.1745    0.0848 C   0  0  0  0  0  0  0  0  0  0  0  0
   -5.6636   -0.7633    0.3367 C   0  0  0  0  0  0  0  0  0  0  0  0
   -7.1046   -0.5556    0.2883 C   0  0  0  0  0  0  0  0  0  0  0  0
   -7.6797    0.6515   -0.0281 C   0  0  0  0  0  0  0  0  0  0  0  0
   -9.0721    0.7977   -0.0590 C   0  0  0  0  0  0  0  0  0  0  0  0
   -9.8905   -0.2625    0.2263 C   0  0  0  0  0  0  0  0  0  0  0  0
  -11.3017   -0.1148    0.1963 N   0  0  0  0  0  0  0  0  0  0  0  0
  -12.0737    0.7105    0.9023 C   0  0  0  0  0  0  0  0  0  0  0  0
  -11.7327    1.6578    1.8631 C   0  0  0  0  0  0  0  0  0  0  0  0
  -12.7690    2.3870    2.4440 C   0  0  0  0  0  0  0  0  0  0  0  0
  -14.0810    2.1769    2.0797 C   0  0  0  0  0  0  0  0  0  0  0  0
  -14.4211    1.2371    1.1262 C   0  0  0  0  0  0  0  0  0  0  0  0
  -13.3929    0.5187    0.5551 C   0  0  0  0  0  0  0  0  0  0  0  0
  -13.4235   -0.4801   -0.4175 C   0  0  0  0  0  0  0  0  0  0  0  0
  -14.4268   -1.0860   -1.1280 C   0  0  0  0  0  0  0  0  0  0  0  0
  -14.1628   -2.0676   -2.0479 C   0  0  0  0  0  0  0  0  0  0  0  0
  -12.8578   -2.4475   -2.2567 C   0  0  0  0  0  0  0  0  0  0  0  0
  -11.8638   -1.8412   -1.5470 C   0  0  0  0  0  0  0  0  0  0  0  0
  -12.1093   -0.8446   -0.6102 C   0  0  0  0  0  0  0  0  0  0  0  0
   -9.3074   -1.4654    0.5416 C   0  0  0  0  0  0  0  0  0  0  0  0
   -7.9290   -1.6207    0.5750 C   0  0  0  0  0  0  0  0  0  0  0  0
   -2.0529    1.0055   -0.1429 S   0  0  0  0  0  0  0  0  0  0  0  0
    2.0332   -0.7961    0.3324 S   0  0  0  0  0  0  0  0  0  0  0  0
    7.1151    0.6945   -0.0456 C   0  0  0  0  0  0  0  0  0  0  0  0
    8.0019    1.7369   -0.3214 C   0  0  0  0  0  0  0  0  0  0  0  0
    9.3679    1.5446   -0.2600 C   0  0  0  0  0  0  0  0  0  0  0  0
    9.9086    0.3227    0.0744 C   0  0  0  0  0  0  0  0  0  0  0  0
   11.3162    0.1348    0.1383 N   0  0  0  0  0  0  0  0  0  0  0  0
   12.2539    0.4229   -0.7672 C   0  0  0  0  0  0  0  0  0  0  0  0
   12.0889    0.9928   -2.0330 C   0  0  0  0  0  0  0  0  0  0  0  0
   13.2400    1.1826   -2.7695 C   0  0  0  0  0  0  0  0  0  0  0  0
   14.4906    0.8406   -2.3108 C   0  0  0  0  0  0  0  0  0  0  0  0
   14.6124    0.2827   -1.0614 C   0  0  0  0  0  0  0  0  0  0  0  0
   13.4901    0.0724   -0.2854 C   0  0  0  0  0  0  0  0  0  0  0  0
   13.2856   -0.4550    0.9781 C   0  0  0  0  0  0  0  0  0  0  0  0
   14.2057   -0.9538    1.8837 C   0  0  0  0  0  0  0  0  0  0  0  0
   13.7245   -1.4217    3.0841 C   0  0  0  0  0  0  0  0  0  0  0  0
   12.3694   -1.3903    3.3653 C   0  0  0  0  0  0  0  0  0  0  0  0
   11.4728   -0.8818    2.4314 C   0  0  0  0  0  0  0  0  0  0  0  0
   11.9454   -0.4048    1.2124 C   0  0  0  0  0  0  0  0  0  0  0  0
    9.0343   -0.7032    0.3455 C   0  0  0  0  0  0  0  0  0  0  0  0
    7.6719   -0.5161    0.2855 C   0  0  0  0  0  0  0  0  0  0  0  0
    5.3261    1.9257   -0.3806 H   0  0  0  0  0  0  0  0  0  0  0  0
    5.0544   -0.9824    0.3906 H   0  0  0  0  0  0  0  0  0  0  0  0
    3.2914    2.3491   -0.5039 H   0  0  0  0  0  0  0  0  0  0  0  0
    0.7242    2.3286   -0.5030 H   0  0  0  0  0  0  0  0  0  0  0  0
   -0.6907   -2.0994    0.6699 H   0  0  0  0  0  0  0  0  0  0  0  0
   -3.2580   -2.1637    0.6942 H   0  0  0  0  0  0  0  0  0  0  0  0
   -5.0929    1.1712   -0.1772 H   0  0  0  0  0  0  0  0  0  0  0  0
   -5.2366   -1.7380    0.5922 H   0  0  0  0  0  0  0  0  0  0  0  0
   -7.0817    1.5142   -0.2597 H   0  0  0  0  0  0  0  0  0  0  0  0
   -9.5006    1.7442   -0.3078 H   0  0  0  0  0  0  0  0  0  0  0  0
  -10.7133    1.8302    2.1546 H   0  0  0  0  0  0  0  0  0  0  0  0
  -12.5347    3.1355    3.1991 H   0  0  0  0  0  0  0  0  0  0  0  0
  -14.8705    2.7415    2.5310 H   0  0  0  0  0  0  0  0  0  0  0  0
  -15.4345    1.0434    0.8140 H   0  0  0  0  0  0  0  0  0  0  0  0
  -15.4451   -0.7922   -0.9677 H   0  0  0  0  0  0  0  0  0  0  0  0
  -14.9803   -2.5498   -2.6153 H   0  0  0  0  0  0  0  0  0  0  0  0
  -12.6560   -3.2363   -2.9979 H   0  0  0  0  0  0  0  0  0  0  0  0
  -10.8232   -2.1262   -1.6958 H   0  0  0  0  0  0  0  0  0  0  0  0
   -9.9147   -2.3239    0.7726 H   0  0  0  0  0  0  0  0  0  0  0  0
   -7.4981   -2.5805    0.8269 H   0  0  0  0  0  0  0  0  0  0  0  0
    7.5807    2.6993   -0.5846 H   0  0  0  0  0  0  0  0  0  0  0  0
   10.0664    2.3533   -0.4740 H   0  0  0  0  0  0  0  0  0  0  0  0
   11.1082    1.2699   -2.4119 H   0  0  0  0  0  0  0  0  0  0  0  0
   13.1417    1.6266   -3.7637 H   0  0  0  0  0  0  0  0  0  0  0  0
   15.3643    1.0138   -2.9373 H   0  0  0  0  0  0  0  0  0  0  0  0
   15.5609   -0.0013   -0.6569 H   0  0  0  0  0  0  0  0  0  0  0  0
   15.2412   -0.9575    1.6219 H   0  0  0  0  0  0  0  0  0  0  0  0
   14.4055   -1.8150    3.8110 H   0  0  0  0  0  0  0  0  0  0  0  0
   11.9590   -1.7486    4.2940 H   0  0  0  0  0  0  0  0  0  0  0  0
   10.4218   -0.8650    2.6669 H   0  0  0  0  0  0  0  0  0  0  0  0
    9.4727   -1.6754    0.6111 H   0  0  0  0  0  0  0  0  0  0  0  0
    7.0179   -1.3446    0.5051 H   0  0  0  0  0  0  0  0  0  0  0  0
  1  2  2  0
  2  3  1  0
  3  4  2  0
  4  5  1  0
  5  6  2  0
  6  7  1  0
  7  8  2  0
  8  9  1  0
  9 10  2  0
 10 11  1  0
 11 12  2  0
 12 13  1  0
 13 14  2  0
 14 15  1  0
 15 16  2  0
 16 17  1  0
 17 18  1  0
 18 19  2  0
 19 20  1  0
 20 21  2  0
 21 22  1  0
 22 23  2  0
 23 24  1  0
 24 25  2  0
 25 26  1  0
 26 27  2  0
 27 28  1  0
 28 29  2  0
 16 30  1  0
 30 31  2  0
 10 32  1  0
  6 33  1  0
  1 34  1  0
 34 35  2  0
 35 36  1  0
 36 37  2  0
 37 38  1  0
 38 39  1  0
 39 40  2  0
 40 41  1  0
 41 42  2  0
 42 43  1  0
 43 44  2  0
 44 45  1  0
 45 46  2  0
 46 47  1  0
 47 48  2  0
 48 49  1  0
 49 50  2  0
 37 51  1  0
 51 52  2  0
 33  3  1  0
 52 34  1  0
 32  7  1  0
 50 38  1  0
 31 13  1  0
 44 39  1  0
 50 45  1  0
 29 17  1  0
 23 18  1  0
 29 24  1  0
  1 53  1  0
  2 54  1  0
  4 55  1  0
  5 56  1  0
  8 57  1  0
  9 58  1  0
 11 59  1  0
 12 60  1  0
 14 61  1  0
 15 62  1  0
 19 63  1  0
 20 64  1  0
 21 65  1  0
 22 66  1  0
 25 67  1  0
 26 68  1  0
 27 69  1  0
 28 70  1  0
 30 71  1  0
 31 72  1  0
 35 73  1  0
 36 74  1  0
 40 75  1  0
 41 76  1  0
 42 77  1  0
 43 78  1  0
 46 79  1  0
 47 80  1  0
 48 81  1  0
 49 82  1  0
 51 83  1  0
 52 84  1  0
M  END
