
     RDKit          3D

105113  0  0  0  0  0  0  0  0999 V2000
   -9.9302   -2.2587   -2.6943 C   0  0  0  0  0  0  0  0  0  0  0  0
   -8.4969   -2.7043   -2.4946 C   0  0  0  0  0  0  0  0  0  0  0  0
   -7.9214   -2.0345   -1.2929 C   0  0  0  0  0  0  0  0  0  0  0  0
   -7.9677   -0.5169   -1.5190 C   0  0  0  0  0  0  0  0  0  0  0  0
   -7.4302    0.1676   -0.3734 N   0  0  0  0  0  0  0  0  0  0  0  0
   -6.1918    0.4743   -0.0772 C   0  0  0  0  0  0  0  0  0  0  0  0
   -4.9252    0.2352   -0.7352 C   0  0  0  0  0  0  0  0  0  0  0  0
   -3.7395    0.4902   -0.0353 C   0  0  0  0  0  0  0  0  0  0  0  0
   -2.5244    0.3089   -0.6115 C   0  0  0  0  0  0  0  0  0  0  0  0
   -2.3529   -0.1287   -1.9033 C   0  0  0  0  0  0  0  0  0  0  0  0
   -1.0038   -0.3247   -2.4392 C   0  0  0  0  0  0  0  0  0  0  0  0
   -0.6684   -0.6311   -3.7001 N   0  0  0  0  0  0  0  0  0  0  0  0
    0.6666   -0.7160   -3.7626 N   0  0  0  0  0  0  0  0  0  0  0  0
    1.1497   -0.4633   -2.5439 C   0  0  0  0  0  0  0  0  0  0  0  0
    2.5418   -0.4334   -2.0646 C   0  0  0  0  0  0  0  0  0  0  0  0
    2.8286   -0.2303   -0.7331 C   0  0  0  0  0  0  0  0  0  0  0  0
    4.1630   -0.2223   -0.2980 C   0  0  0  0  0  0  0  0  0  0  0  0
    5.2141   -0.4049   -1.1191 C   0  0  0  0  0  0  0  0  0  0  0  0
    6.6250   -0.4555   -0.7678 C   0  0  0  0  0  0  0  0  0  0  0  0
    7.6090   -0.6761   -1.7207 N   0  0  0  0  0  0  0  0  0  0  0  0
    8.8030   -0.7444   -1.1603 C   0  0  0  0  0  0  0  0  0  0  0  0
   10.0773   -0.9627   -1.8687 C   0  0  0  0  0  0  0  0  0  0  0  0
   10.9759    0.0786   -1.9143 C   0  0  0  0  0  0  0  0  0  0  0  0
   12.1967   -0.0942   -2.5763 C   0  0  0  0  0  0  0  0  0  0  0  0
   12.4942   -1.2935   -3.1755 C   0  0  0  0  0  0  0  0  0  0  0  0
   11.5838   -2.3543   -3.1330 C   0  0  0  0  0  0  0  0  0  0  0  0
   10.3930   -2.1436   -2.4704 C   0  0  0  0  0  0  0  0  0  0  0  0
    8.6407   -0.5700    0.1825 C   0  0  0  0  0  0  0  0  0  0  0  0
    9.7028   -0.5969    1.1904 C   0  0  0  0  0  0  0  0  0  0  0  0
   10.5825    0.4229    1.4287 C   0  0  0  0  0  0  0  0  0  0  0  0
   11.5804    0.2847    2.4029 C   0  0  0  0  0  0  0  0  0  0  0  0
   11.7071   -0.8814    3.1508 C   0  0  0  0  0  0  0  0  0  0  0  0
   10.8227   -1.9179    2.9178 C   0  0  0  0  0  0  0  0  0  0  0  0
    9.8540   -1.7585    1.9587 C   0  0  0  0  0  0  0  0  0  0  0  0
    7.2855   -0.3911    0.3899 N   0  0  0  0  0  0  0  0  0  0  0  0
    6.8062   -0.1950    1.7216 C   0  0  0  0  0  0  0  0  0  0  0  0
    6.9663    1.1722    2.2771 C   0  0  0  0  0  0  0  0  0  0  0  0
    6.3630    2.3521    1.6666 C   0  0  0  0  0  0  0  0  0  0  0  0
    4.8870    2.4754    1.6048 C   0  0  0  0  0  0  0  0  0  0  0  0
    4.8949   -0.6076   -2.4692 C   0  0  0  0  0  0  0  0  0  0  0  0
    3.5965   -0.6174   -2.9041 C   0  0  0  0  0  0  0  0  0  0  0  0
    0.1166   -0.2310   -1.7714 O   0  0  0  0  0  0  0  0  0  0  0  0
   -3.4980   -0.3843   -2.6075 C   0  0  0  0  0  0  0  0  0  0  0  0
   -4.7670   -0.2011   -2.0175 C   0  0  0  0  0  0  0  0  0  0  0  0
   -6.2668    1.1016    1.1482 N   0  0  0  0  0  0  0  0  0  0  0  0
   -7.5037    1.1802    1.5899 C   0  0  0  0  0  0  0  0  0  0  0  0
   -7.9730    1.7720    2.8417 C   0  0  0  0  0  0  0  0  0  0  0  0
   -8.2152    3.1169    2.8962 C   0  0  0  0  0  0  0  0  0  0  0  0
   -8.6660    3.7101    4.0700 C   0  0  0  0  0  0  0  0  0  0  0  0
   -8.8778    2.9541    5.2061 C   0  0  0  0  0  0  0  0  0  0  0  0
   -8.6307    1.6070    5.1416 C   0  0  0  0  0  0  0  0  0  0  0  0
   -8.1761    1.0053    3.9568 C   0  0  0  0  0  0  0  0  0  0  0  0
   -8.2811    0.5830    0.6231 C   0  0  0  0  0  0  0  0  0  0  0  0
   -9.7177    0.4491    0.6891 C   0  0  0  0  0  0  0  0  0  0  0  0
  -10.3802   -0.3523    1.5801 C   0  0  0  0  0  0  0  0  0  0  0  0
  -11.7635   -0.3997    1.5544 C   0  0  0  0  0  0  0  0  0  0  0  0
  -12.5115    0.3476    0.6432 C   0  0  0  0  0  0  0  0  0  0  0  0
  -11.8223    1.1427   -0.2391 C   0  0  0  0  0  0  0  0  0  0  0  0
  -10.4647    1.2009   -0.2267 C   0  0  0  0  0  0  0  0  0  0  0  0
  -10.0057   -1.4774   -3.4689 H   0  0  0  0  0  0  0  0  0  0  0  0
  -10.5267   -3.1434   -3.0455 H   0  0  0  0  0  0  0  0  0  0  0  0
  -10.3220   -1.8846   -1.7284 H   0  0  0  0  0  0  0  0  0  0  0  0
   -7.9222   -2.3958   -3.3892 H   0  0  0  0  0  0  0  0  0  0  0  0
   -8.4576   -3.8196   -2.4274 H   0  0  0  0  0  0  0  0  0  0  0  0
   -8.5112   -2.2444   -0.3602 H   0  0  0  0  0  0  0  0  0  0  0  0
   -6.8771   -2.3058   -1.0950 H   0  0  0  0  0  0  0  0  0  0  0  0
   -7.5607   -0.2766   -2.4740 H   0  0  0  0  0  0  0  0  0  0  0  0
   -9.0791   -0.2824   -1.5982 H   0  0  0  0  0  0  0  0  0  0  0  0
   -3.8362    0.8369    0.9886 H   0  0  0  0  0  0  0  0  0  0  0  0
   -1.5996    0.5112   -0.0506 H   0  0  0  0  0  0  0  0  0  0  0  0
    2.0168   -0.0821   -0.0537 H   0  0  0  0  0  0  0  0  0  0  0  0
    4.2721   -0.0693    0.7419 H   0  0  0  0  0  0  0  0  0  0  0  0
   10.7953    1.0438   -1.4643 H   0  0  0  0  0  0  0  0  0  0  0  0
   12.9281    0.7142   -2.6277 H   0  0  0  0  0  0  0  0  0  0  0  0
   13.4233   -1.5004   -3.7086 H   0  0  0  0  0  0  0  0  0  0  0  0
   11.8256   -3.2888   -3.6039 H   0  0  0  0  0  0  0  0  0  0  0  0
    9.6900   -2.9540   -2.4363 H   0  0  0  0  0  0  0  0  0  0  0  0
   10.4902    1.3252    0.8662 H   0  0  0  0  0  0  0  0  0  0  0  0
   12.2716    1.0955    2.5859 H   0  0  0  0  0  0  0  0  0  0  0  0
   12.4662   -1.0159    3.9056 H   0  0  0  0  0  0  0  0  0  0  0  0
   10.9021   -2.8537    3.4937 H   0  0  0  0  0  0  0  0  0  0  0  0
    9.1521   -2.5587    1.7612 H   0  0  0  0  0  0  0  0  0  0  0  0
    7.5278   -0.8378    2.3876 H   0  0  0  0  0  0  0  0  0  0  0  0
    5.8043   -0.5802    1.9151 H   0  0  0  0  0  0  0  0  0  0  0  0
    8.0705    1.4210    2.4411 H   0  0  0  0  0  0  0  0  0  0  0  0
    6.6097    1.1553    3.3750 H   0  0  0  0  0  0  0  0  0  0  0  0
    6.7193    3.2512    2.2806 H   0  0  0  0  0  0  0  0  0  0  0  0
    6.8372    2.6048    0.6516 H   0  0  0  0  0  0  0  0  0  0  0  0
    4.5586    2.4993    0.5477 H   0  0  0  0  0  0  0  0  0  0  0  0
    4.3427    1.7379    2.2315 H   0  0  0  0  0  0  0  0  0  0  0  0
    4.5231    3.4737    2.0154 H   0  0  0  0  0  0  0  0  0  0  0  0
    5.6687   -0.7624   -3.1982 H   0  0  0  0  0  0  0  0  0  0  0  0
    3.3708   -0.7800   -3.9616 H   0  0  0  0  0  0  0  0  0  0  0  0
   -3.4231   -0.7310   -3.6274 H   0  0  0  0  0  0  0  0  0  0  0  0
   -5.5824   -0.4302   -2.6484 H   0  0  0  0  0  0  0  0  0  0  0  0
   -8.0696    3.7753    2.0421 H   0  0  0  0  0  0  0  0  0  0  0  0
   -8.8672    4.7869    4.1383 H   0  0  0  0  0  0  0  0  0  0  0  0
   -9.2350    3.4482    6.1170 H   0  0  0  0  0  0  0  0  0  0  0  0
   -8.7978    1.0091    6.0280 H   0  0  0  0  0  0  0  0  0  0  0  0
   -7.9984   -0.0608    3.9642 H   0  0  0  0  0  0  0  0  0  0  0  0
   -9.8172   -0.9465    2.3052 H   0  0  0  0  0  0  0  0  0  0  0  0
  -12.3404   -1.0174    2.2404 H   0  0  0  0  0  0  0  0  0  0  0  0
  -13.5822    0.2950    0.6409 H   0  0  0  0  0  0  0  0  0  0  0  0
  -12.3676    1.7314   -0.9536 H   0  0  0  0  0  0  0  0  0  0  0  0
   -9.9470    1.8482   -0.9435 H   0  0  0  0  0  0  0  0  0  0  0  0
  1  2  1  0
  2  3  1  0
  3  4  1  0
  4  5  1  0
  5  6  1  0
  6  7  1  0
  7  8  2  0
  8  9  1  0
  9 10  2  0
 10 11  1  0
 11 12  2  0
 12 13  1  0
 13 14  2  0
 14 15  1  0
 15 16  2  0
 16 17  1  0
 17 18  2  0
 18 19  1  0
 19 20  2  0
 20 21  1  0
 21 22  1  0
 22 23  2  0
 23 24  1  0
 24 25  2  0
 25 26  1  0
 26 27  2  0
 21 28  2  0
 28 29  1  0
 29 30  2  0
 30 31  1  0
 31 32  2  0
 32 33  1  0
 33 34  2  0
 28 35  1  0
 35 36  1  0
 36 37  1  0
 37 38  1  0
 38 39  1  0
 18 40  1  0
 40 41  2  0
 14 42  1  0
 10 43  1  0
 43 44  2  0
  6 45  2  0
 45 46  1  0
 46 47  1  0
 47 48  2  0
 48 49  1  0
 49 50  2  0
 50 51  1  0
 51 52  2  0
 46 53  2  0
 53 54  1  0
 54 55  2  0
 55 56  1  0
 56 57  2  0
 57 58  1  0
 58 59  2  0
 53  5  1  0
 59 54  1  0
 44  7  1  0
 52 47  1  0
 42 11  1  0
 41 15  1  0
 35 19  1  0
 27 22  1  0
 34 29  1  0
  1 60  1  0
  1 61  1  0
  1 62  1  0
  2 63  1  0
  2 64  1  0
  3 65  1  0
  3 66  1  0
  4 67  1  0
  4 68  1  0
  8 69  1  0
  9 70  1  0
 16 71  1  0
 17 72  1  0
 23 73  1  0
 24 74  1  0
 25 75  1  0
 26 76  1  0
 27 77  1  0
 30 78  1  0
 31 79  1  0
 32 80  1  0
 33 81  1  0
 34 82  1  0
 36 83  1  0
 36 84  1  0
 37 85  1  0
 37 86  1  0
 38 87  1  0
 38 88  1  0
 39 89  1  0
 39 90  1  0
 39 91  1  0
 40 92  1  0
 41 93  1  0
 43 94  1  0
 44 95  1  0
 48 96  1  0
 49 97  1  0
 50 98  1  0
 51 99  1  0
 52100  1  0
 55101  1  0
 56102  1  0
 57103  1  0
 58104  1  0
 59105  1  0
M  END
