
     RDKit          3D

 24 27  0  0  0  0  0  0  0  0999 V2000
   -4.1670   -0.1722   -0.0215 O   0  0  0  0  0  0  0  0  0  0  0  0
   -3.0244   -0.7054   -0.0507 C   0  0  0  0  0  0  0  0  0  0  0  0
   -2.8588   -2.0947   -0.1343 O   0  0  0  0  0  0  0  0  0  0  0  0
   -1.5846   -2.6396   -0.1639 C   0  0  0  0  0  0  0  0  0  0  0  0
   -1.3772   -3.8822   -0.2385 O   0  0  0  0  0  0  0  0  0  0  0  0
   -0.3838   -1.7884   -0.1092 C   0  0  0  0  0  0  0  0  0  0  0  0
    0.8709   -2.3545   -0.1401 C   0  0  0  0  0  0  0  0  0  0  0  0
    1.9794   -1.5191   -0.0866 C   0  0  0  0  0  0  0  0  0  0  0  0
    1.8024   -0.1534   -0.0045 C   0  0  0  0  0  0  0  0  0  0  0  0
    0.5278    0.3855    0.0247 C   0  0  0  0  0  0  0  0  0  0  0  0
    0.4164    1.7621    0.1077 C   0  0  0  0  0  0  0  0  0  0  0  0
   -0.8453    2.3439    0.1395 C   0  0  0  0  0  0  0  0  0  0  0  0
   -1.9648    1.5387    0.0879 C   0  0  0  0  0  0  0  0  0  0  0  0
   -1.8430    0.1504    0.0042 C   0  0  0  0  0  0  0  0  0  0  0  0
   -0.5886   -0.4260   -0.0273 C   0  0  0  0  0  0  0  0  0  0  0  0
    1.5719    2.6439    0.1641 C   0  0  0  0  0  0  0  0  0  0  0  0
    1.4655    3.9043    0.2401 O   0  0  0  0  0  0  0  0  0  0  0  0
    2.8505    2.1051    0.1349 O   0  0  0  0  0  0  0  0  0  0  0  0
    2.9677    0.7034    0.0505 C   0  0  0  0  0  0  0  0  0  0  0  0
    4.1378    0.2467    0.0259 O   0  0  0  0  0  0  0  0  0  0  0  0
    0.9779   -3.4373   -0.2053 H   0  0  0  0  0  0  0  0  0  0  0  0
    2.9684   -1.9646   -0.1109 H   0  0  0  0  0  0  0  0  0  0  0  0
   -0.9399    3.4295    0.2050 H   0  0  0  0  0  0  0  0  0  0  0  0
   -2.9592    1.9240    0.1085 H   0  0  0  0  0  0  0  0  0  0  0  0
  1  2  2  0
  2  3  1  0
  3  4  1  0
  4  5  2  0
  4  6  1  0
  6  7  1  0
  7  8  2  0
  8  9  1  0
  9 10  2  0
 10 11  1  0
 11 12  2  0
 12 13  1  0
 13 14  2  0
 14 15  1  0
 11 16  1  0
 16 17  2  0
 16 18  1  0
 18 19  1  0
 19 20  2  0
 14  2  1  0
 15  6  2  0
 19  9  1  0
 15 10  1  0
  7 21  1  0
  8 22  1  0
 12 23  1  0
 13 24  1  0
M  END
