
     RDKit          3D

 57 59  0  0  0  0  0  0  0  0999 V2000
   -4.8875   -1.2459   -1.2424 C   0  0  0  0  0  0  0  0  0  0  0  0
   -5.4481   -0.4445   -0.1088 C   0  0  0  0  0  0  0  0  0  0  0  0
   -4.4533    0.1050    0.7763 N   0  0  0  0  0  0  0  0  0  0  0  0
   -4.9350    0.9097    1.8903 C   0  0  0  0  0  0  0  0  0  0  0  0
   -5.5457    2.2101    1.4321 C   0  0  0  0  0  0  0  0  0  0  0  0
   -3.0726   -0.0782    0.6529 C   0  0  0  0  0  0  0  0  0  0  0  0
   -2.2613    1.0469    0.4225 C   0  0  0  0  0  0  0  0  0  0  0  0
   -0.8969    0.9487    0.2855 C   0  0  0  0  0  0  0  0  0  0  0  0
   -0.0050    2.0163    0.0529 N   0  0  0  0  0  0  0  0  0  0  0  0
   -0.3271    3.3817   -0.0831 C   0  0  0  0  0  0  0  0  0  0  0  0
    0.6920    4.4395   -0.3288 C   0  0  0  0  0  0  0  0  0  0  0  0
   -1.5109    3.7607    0.0003 O   0  0  0  0  0  0  0  0  0  0  0  0
   -0.3762   -0.3421    0.3909 C   0  0  0  0  0  0  0  0  0  0  0  0
    1.0268   -0.5010    0.2582 N   0  0  0  0  0  0  0  0  0  0  0  0
    1.6203   -0.3813   -0.8335 N   0  0  0  0  0  0  0  0  0  0  0  0
    3.0297   -0.5619   -0.8513 C   0  0  0  0  0  0  0  0  0  0  0  0
    3.8880    0.0896    0.0171 C   0  0  0  0  0  0  0  0  0  0  0  0
    5.2563   -0.0971   -0.0129 C   0  0  0  0  0  0  0  0  0  0  0  0
    6.1005    0.5493    0.8477 C   0  0  0  0  0  0  0  0  0  0  0  0
    5.6455    1.3366    1.6949 O   0  0  0  0  0  0  0  0  0  0  0  0
    7.4362    0.3114    0.7542 N   0  0  0  0  0  0  0  0  0  0  0  0
    7.9506   -0.5130   -0.1276 N   0  0  0  0  0  0  0  0  0  0  0  0
    7.1502   -1.1717   -0.9964 C   0  0  0  0  0  0  0  0  0  0  0  0
    7.6851   -1.9522   -1.8248 O   0  0  0  0  0  0  0  0  0  0  0  0
    5.7912   -0.9565   -0.9324 C   0  0  0  0  0  0  0  0  0  0  0  0
    4.9562   -1.6115   -1.8016 C   0  0  0  0  0  0  0  0  0  0  0  0
    3.5713   -1.4201   -1.7685 C   0  0  0  0  0  0  0  0  0  0  0  0
    2.7137   -2.0957   -2.6641 N   0  0  0  0  0  4  0  0  0  0  0  0
    1.6428   -1.5497   -3.0568 O   0  0  0  0  0  0  0  0  0  0  0  0
    2.9847   -3.3364   -3.1406 O   0  0  0  0  0  1  0  0  0  0  0  0
   -1.1598   -1.4557    0.6167 C   0  0  0  0  0  0  0  0  0  0  0  0
   -2.5260   -1.3332    0.7510 C   0  0  0  0  0  0  0  0  0  0  0  0
   -3.3911   -2.3893    0.9791 O   0  0  0  0  0  0  0  0  0  0  0  0
   -2.8599   -3.7138    1.0875 C   0  0  0  0  0  0  0  0  0  0  0  0
   -3.8169   -1.1231   -1.4158 H   0  0  0  0  0  0  0  0  0  0  0  0
   -5.3807   -0.9879   -2.2269 H   0  0  0  0  0  0  0  0  0  0  0  0
   -5.2008   -2.3169   -1.0797 H   0  0  0  0  0  0  0  0  0  0  0  0
   -6.0398    0.3957   -0.5811 H   0  0  0  0  0  0  0  0  0  0  0  0
   -6.2387   -1.0175    0.4605 H   0  0  0  0  0  0  0  0  0  0  0  0
   -5.7583    0.3597    2.4317 H   0  0  0  0  0  0  0  0  0  0  0  0
   -4.1473    1.0702    2.6514 H   0  0  0  0  0  0  0  0  0  0  0  0
   -4.8006    2.9576    1.1038 H   0  0  0  0  0  0  0  0  0  0  0  0
   -6.0572    2.6529    2.3163 H   0  0  0  0  0  0  0  0  0  0  0  0
   -6.3135    1.9927    0.6709 H   0  0  0  0  0  0  0  0  0  0  0  0
   -2.7264    2.0181    0.3511 H   0  0  0  0  0  0  0  0  0  0  0  0
    1.0287    1.7817   -0.0318 H   0  0  0  0  0  0  0  0  0  0  0  0
    0.8554    4.4425   -1.4417 H   0  0  0  0  0  0  0  0  0  0  0  0
    0.3412    5.4302   -0.0425 H   0  0  0  0  0  0  0  0  0  0  0  0
    1.6590    4.2299    0.1377 H   0  0  0  0  0  0  0  0  0  0  0  0
    3.4355    0.7697    0.7407 H   0  0  0  0  0  0  0  0  0  0  0  0
    8.0662    0.8105    1.4157 H   0  0  0  0  0  0  0  0  0  0  0  0
    8.9932   -0.6592   -0.1550 H   0  0  0  0  0  0  0  0  0  0  0  0
    5.3696   -2.2896   -2.5283 H   0  0  0  0  0  0  0  0  0  0  0  0
   -0.7276   -2.4475    0.6940 H   0  0  0  0  0  0  0  0  0  0  0  0
   -3.5898   -4.4156    1.4956 H   0  0  0  0  0  0  0  0  0  0  0  0
   -2.4477   -3.9819    0.1063 H   0  0  0  0  0  0  0  0  0  0  0  0
   -1.9884   -3.6263    1.7907 H   0  0  0  0  0  0  0  0  0  0  0  0
  1  2  1  0
  2  3  1  0
  3  4  1  0
  4  5  1  0
  3  6  1  0
  6  7  2  0
  7  8  1  0
  8  9  1  0
  9 10  1  0
 10 11  1  0
 10 12  2  0
  8 13  2  0
 13 14  1  0
 14 15  2  0
 15 16  1  0
 16 17  2  0
 17 18  1  0
 18 19  1  0
 19 20  2  0
 19 21  1  0
 21 22  1  0
 22 23  1  0
 23 24  2  0
 23 25  1  0
 25 26  1  0
 26 27  2  0
 27 28  1  0
 28 29  2  0
 28 30  1  0
 13 31  1  0
 31 32  2  0
 32 33  1  0
 33 34  1  0
 32  6  1  0
 27 16  1  0
 25 18  2  0
  1 35  1  0
  1 36  1  0
  1 37  1  0
  2 38  1  0
  2 39  1  0
  4 40  1  0
  4 41  1  0
  5 42  1  0
  5 43  1  0
  5 44  1  0
  7 45  1  0
  9 46  1  0
 11 47  1  0
 11 48  1  0
 11 49  1  0
 17 50  1  0
 21 51  1  0
 22 52  1  0
 26 53  1  0
 31 54  1  0
 34 55  1  0
 34 56  1  0
 34 57  1  0
M  CHG  2  28   1  30  -1
M  END
