
     RDKit          3D

 82 92  0  0  0  0  0  0  0  0999 V2000
   -2.9953   -2.0047    0.9328 C   0  0  0  0  0  0  0  0  0  0  0  0
   -3.5689   -0.7850    0.3234 C   0  0  0  0  0  0  0  0  0  0  0  0
   -4.8799   -0.6335    0.2760 C   0  0  0  0  0  0  0  0  0  0  0  0
   -6.0101   -1.4456    0.7282 C   0  0  0  0  0  0  0  0  0  0  0  0
   -6.1430   -2.6069    1.4437 C   0  0  0  0  0  0  0  0  0  0  0  0
   -7.4087   -3.0856    1.7103 C   0  0  0  0  0  0  0  0  0  0  0  0
   -8.5493   -2.4068    1.2655 C   0  0  0  0  0  0  0  0  0  0  0  0
   -8.4059   -1.2495    0.5552 C   0  0  0  0  0  0  0  0  0  0  0  0
   -7.1399   -0.7579    0.2802 C   0  0  0  0  0  0  0  0  0  0  0  0
   -6.7055    0.4297   -0.4142 C   0  0  0  0  0  0  0  0  0  0  0  0
   -7.5858    1.4449   -1.0480 C   0  0  0  0  0  0  0  0  0  0  0  0
   -5.4015    0.5131   -0.4223 N   0  0  0  0  0  4  0  0  0  0  0  0
   -4.5350    1.5919   -1.0264 B   0  0  0  0  0  4  0  0  0  0  0  0
   -4.8532    2.9124   -0.4928 F   0  0  0  0  0  0  0  0  0  0  0  0
   -4.8502    1.6419   -2.4693 F   0  0  0  0  0  0  0  0  0  0  0  0
   -3.0662    1.3068   -0.8225 N   0  0  0  0  0  0  0  0  0  0  0  0
   -2.0396    2.1066   -1.2166 C   0  0  0  0  0  0  0  0  0  0  0  0
   -2.1463    3.4346   -1.9197 C   0  0  0  0  0  0  0  0  0  0  0  0
   -0.8781    1.4994   -0.8648 C   0  0  0  0  0  0  0  0  0  0  0  0
    0.4348    1.8819   -1.0155 C   0  0  0  0  0  0  0  0  0  0  0  0
    1.4011    1.0330   -0.5224 C   0  0  0  0  0  0  0  0  0  0  0  0
    2.7253    1.4058   -0.6671 C   0  0  0  0  0  0  0  0  0  0  0  0
    3.0453    2.6840   -1.3384 C   0  0  0  0  0  0  0  0  0  0  0  0
    3.1607    2.7737   -2.6962 C   0  0  0  0  0  0  0  0  0  0  0  0
    3.4487    3.9616   -3.3236 C   0  0  0  0  0  0  0  0  0  0  0  0
    3.6256    5.0914   -2.5629 C   0  0  0  0  0  0  0  0  0  0  0  0
    3.5216    5.0654   -1.1823 C   0  0  0  0  0  0  0  0  0  0  0  0
    3.2319    3.8531   -0.6007 C   0  0  0  0  0  0  0  0  0  0  0  0
    3.7049    0.5757   -0.1832 C   0  0  0  0  0  0  0  0  0  0  0  0
    3.3635   -0.6320    0.4487 C   0  0  0  0  0  0  0  0  0  0  0  0
    2.0504   -1.0026    0.5932 C   0  0  0  0  0  0  0  0  0  0  0  0
    1.7200   -2.2450    1.2540 C   0  0  0  0  0  0  0  0  0  0  0  0
    1.5678   -2.3911    2.6013 C   0  0  0  0  0  0  0  0  0  0  0  0
    1.2538   -3.6168    3.1213 C   0  0  0  0  0  0  0  0  0  0  0  0
    1.0866   -4.7239    2.2874 C   0  0  0  0  0  0  0  0  0  0  0  0
    1.2361   -4.5938    0.9320 C   0  0  0  0  0  0  0  0  0  0  0  0
    1.5502   -3.3568    0.4369 C   0  0  0  0  0  0  0  0  0  0  0  0
    1.0869   -0.1511    0.0979 C   0  0  0  0  0  0  0  0  0  0  0  0
   -0.2486   -0.5164    0.2378 C   0  0  0  0  0  0  0  0  0  0  0  0
   -1.2189    0.3020   -0.2416 C   0  0  0  0  0  0  0  0  0  0  0  0
   -2.6225    0.2012   -0.2280 C   0  0  0  0  0  0  0  0  0  0  0  0
    4.6231   -1.2449    0.8232 C   0  0  0  0  0  0  0  0  0  0  0  0
    4.9478   -2.4072    1.4536 C   0  0  0  0  0  0  0  0  0  0  0  0
    6.2996   -2.7239    1.6723 C   0  0  0  0  0  0  0  0  0  0  0  0
    7.3289   -1.8999    1.2720 C   0  0  0  0  0  0  0  0  0  0  0  0
    6.9604   -0.7171    0.6287 C   0  0  0  0  0  0  0  0  0  0  0  0
    7.8696    0.2102    0.1659 C   0  0  0  0  0  0  0  0  0  0  0  0
    7.4246    1.3640   -0.4675 C   0  0  0  0  0  0  0  0  0  0  0  0
    6.0739    1.6359   -0.6623 C   0  0  0  0  0  0  0  0  0  0  0  0
    5.1595    0.7101   -0.2002 C   0  0  0  0  0  0  0  0  0  0  0  0
    5.6361   -0.4321    0.4280 C   0  0  0  0  0  0  0  0  0  0  0  0
   -2.5207   -1.7495    1.8708 H   0  0  0  0  0  0  0  0  0  0  0  0
   -3.6478   -2.8684    0.8997 H   0  0  0  0  0  0  0  0  0  0  0  0
   -2.2214   -2.3313    0.1222 H   0  0  0  0  0  0  0  0  0  0  0  0
   -5.3190   -3.1442    1.8319 H   0  0  0  0  0  0  0  0  0  0  0  0
   -7.5713   -3.9997    2.2707 H   0  0  0  0  0  0  0  0  0  0  0  0
   -9.5464   -2.7841    1.4750 H   0  0  0  0  0  0  0  0  0  0  0  0
   -9.2801   -0.6907    0.1915 H   0  0  0  0  0  0  0  0  0  0  0  0
   -7.2627    2.4778   -0.7723 H   0  0  0  0  0  0  0  0  0  0  0  0
   -7.5238    1.4039   -2.1586 H   0  0  0  0  0  0  0  0  0  0  0  0
   -8.6449    1.2533   -0.7912 H   0  0  0  0  0  0  0  0  0  0  0  0
   -2.6516    4.1112   -1.1684 H   0  0  0  0  0  0  0  0  0  0  0  0
   -2.7602    3.3453   -2.8312 H   0  0  0  0  0  0  0  0  0  0  0  0
   -1.1486    3.8368   -2.0730 H   0  0  0  0  0  0  0  0  0  0  0  0
    0.7242    2.8023   -1.4956 H   0  0  0  0  0  0  0  0  0  0  0  0
    3.0234    1.8943   -3.2997 H   0  0  0  0  0  0  0  0  0  0  0  0
    3.5406    4.0288   -4.4156 H   0  0  0  0  0  0  0  0  0  0  0  0
    3.8525    6.0265   -3.0588 H   0  0  0  0  0  0  0  0  0  0  0  0
    3.6677    5.9772   -0.6174 H   0  0  0  0  0  0  0  0  0  0  0  0
    3.1453    3.8108    0.4845 H   0  0  0  0  0  0  0  0  0  0  0  0
    1.6941   -1.5484    3.2474 H   0  0  0  0  0  0  0  0  0  0  0  0
    1.1167   -3.8112    4.1805 H   0  0  0  0  0  0  0  0  0  0  0  0
    0.8381   -5.7015    2.6822 H   0  0  0  0  0  0  0  0  0  0  0  0
    1.1074   -5.4562    0.2661 H   0  0  0  0  0  0  0  0  0  0  0  0
    1.6659   -3.2727   -0.6556 H   0  0  0  0  0  0  0  0  0  0  0  0
   -0.4532   -1.4243    0.7437 H   0  0  0  0  0  0  0  0  0  0  0  0
    4.2189   -3.0970    1.7903 H   0  0  0  0  0  0  0  0  0  0  0  0
    6.5343   -3.6568    2.1777 H   0  0  0  0  0  0  0  0  0  0  0  0
    8.3715   -2.1039    1.4193 H   0  0  0  0  0  0  0  0  0  0  0  0
    8.9094    0.0548    0.2871 H   0  0  0  0  0  0  0  0  0  0  0  0
    8.1485    2.1014   -0.8352 H   0  0  0  0  0  0  0  0  0  0  0  0
    5.7070    2.5154   -1.1490 H   0  0  0  0  0  0  0  0  0  0  0  0
  1  2  1  0
  2  3  2  0
  3  4  1  0
  4  5  2  0
  5  6  1  0
  6  7  2  0
  7  8  1  0
  8  9  2  0
  9 10  1  0
 10 11  1  0
 10 12  2  0
 12 13  1  0
 13 14  1  0
 13 15  1  0
 13 16  1  0
 16 17  1  0
 17 18  1  0
 17 19  2  0
 19 20  1  0
 20 21  2  0
 21 22  1  0
 22 23  1  0
 23 24  2  0
 24 25  1  0
 25 26  2  0
 26 27  1  0
 27 28  2  0
 22 29  2  0
 29 30  1  0
 30 31  2  0
 31 32  1  0
 32 33  2  0
 33 34  1  0
 34 35  2  0
 35 36  1  0
 36 37  2  0
 31 38  1  0
 38 39  2  0
 39 40  1  0
 40 41  2  0
 30 42  1  0
 42 43  2  0
 43 44  1  0
 44 45  2  0
 45 46  1  0
 46 47  1  0
 47 48  2  0
 48 49  1  0
 49 50  2  0
 50 51  1  0
 41  2  1  0
 51 42  1  0
 12  3  1  0
 41 16  1  0
 51 46  2  0
  9  4  1  0
 40 19  1  0
 38 21  1  0
 28 23  1  0
 50 29  1  0
 37 32  1  0
  1 52  1  0
  1 53  1  0
  1 54  1  0
  5 55  1  0
  6 56  1  0
  7 57  1  0
  8 58  1  0
 11 59  1  0
 11 60  1  0
 11 61  1  0
 18 62  1  0
 18 63  1  0
 18 64  1  0
 20 65  1  0
 24 66  1  0
 25 67  1  0
 26 68  1  0
 27 69  1  0
 28 70  1  0
 33 71  1  0
 34 72  1  0
 35 73  1  0
 36 74  1  0
 37 75  1  0
 39 76  1  0
 43 77  1  0
 44 78  1  0
 45 79  1  0
 47 80  1  0
 48 81  1  0
 49 82  1  0
M  CHG  2  12   1  13  -1
M  END
