
     RDKit          3D

 37 39  0  0  0  0  0  0  0  0999 V2000
   -7.5589    0.3915    0.5877 C   0  0  0  0  0  0  0  0  0  0  0  0
   -6.1026    0.2181    0.3477 C   0  0  0  0  0  0  0  0  0  0  0  0
   -5.6154   -0.6030   -0.6392 C   0  0  0  0  0  0  0  0  0  0  0  0
   -4.2422   -0.6974   -0.7834 C   0  0  0  0  0  0  0  0  0  0  0  0
   -3.3286   -0.0289   -0.0101 C   0  0  0  0  0  0  0  0  0  0  0  0
   -1.8878   -0.1217   -0.1539 C   0  0  0  0  0  0  0  0  0  0  0  0
   -1.3322   -0.9156   -1.1101 C   0  0  0  0  0  0  0  0  0  0  0  0
    0.0347   -1.0021   -1.2447 C   0  0  0  0  0  0  0  0  0  0  0  0
    0.8333   -0.2697   -0.3929 C   0  0  0  0  0  0  0  0  0  0  0  0
    2.3085   -0.3470   -0.5190 C   0  0  0  0  0  0  0  0  0  0  0  0
    3.1043    0.3275    0.2640 C   0  0  0  0  0  0  0  0  0  0  0  0
    4.5662    0.2213    0.1039 C   0  0  0  0  0  0  0  0  0  0  0  0
    5.3523    0.9690    0.9740 C   0  0  0  0  0  0  0  0  0  0  0  0
    6.7259    0.9451    0.9138 C   0  0  0  0  0  0  0  0  0  0  0  0
    7.3006    0.1450   -0.0501 C   0  0  0  0  0  0  0  0  0  0  0  0
    9.0579    0.0959   -0.1491 Cl  0  0  0  0  0  0  0  0  0  0  0  0
    6.5511   -0.6064   -0.9255 C   0  0  0  0  0  0  0  0  0  0  0  0
    5.1647   -0.5636   -0.8426 C   0  0  0  0  0  0  0  0  0  0  0  0
    0.2336    0.5170    0.5558 C   0  0  0  0  0  0  0  0  0  0  0  0
   -1.1051    0.5830    0.6653 N   0  0  0  0  0  0  0  0  0  0  0  0
   -3.8594    0.7787    0.9618 N   0  0  0  0  0  0  0  0  0  0  0  0
   -5.1806    0.8863    1.1203 C   0  0  0  0  0  0  0  0  0  0  0  0
   -7.6870    0.8360    1.5885 H   0  0  0  0  0  0  0  0  0  0  0  0
   -8.0988   -0.5755    0.5708 H   0  0  0  0  0  0  0  0  0  0  0  0
   -8.0094    1.0948   -0.1469 H   0  0  0  0  0  0  0  0  0  0  0  0
   -6.2890   -1.1436   -1.2659 H   0  0  0  0  0  0  0  0  0  0  0  0
   -3.8715   -1.3573   -1.5760 H   0  0  0  0  0  0  0  0  0  0  0  0
   -1.9311   -1.5218   -1.8166 H   0  0  0  0  0  0  0  0  0  0  0  0
    0.4978   -1.6355   -2.0081 H   0  0  0  0  0  0  0  0  0  0  0  0
    2.6895   -0.9974   -1.3006 H   0  0  0  0  0  0  0  0  0  0  0  0
    2.7025    0.9837    1.0530 H   0  0  0  0  0  0  0  0  0  0  0  0
    4.8842    1.5798    1.7106 H   0  0  0  0  0  0  0  0  0  0  0  0
    7.2982    1.5436    1.6116 H   0  0  0  0  0  0  0  0  0  0  0  0
    7.0116   -1.2408   -1.6900 H   0  0  0  0  0  0  0  0  0  0  0  0
    4.5931   -1.1563   -1.5335 H   0  0  0  0  0  0  0  0  0  0  0  0
    0.7942    1.1298    1.2709 H   0  0  0  0  0  0  0  0  0  0  0  0
   -5.6047    1.5376    1.9041 H   0  0  0  0  0  0  0  0  0  0  0  0
  1  2  1  0
  2  3  2  0
  3  4  1  0
  4  5  2  0
  5  6  1  0
  6  7  2  0
  7  8  1  0
  8  9  2  0
  9 10  1  0
 10 11  2  0
 11 12  1  0
 12 13  2  0
 13 14  1  0
 14 15  2  0
 15 16  1  0
 15 17  1  0
 17 18  2  0
  9 19  1  0
 19 20  2  0
  5 21  1  0
 21 22  2  0
 22  2  1  0
 20  6  1  0
 18 12  1  0
  1 23  1  0
  1 24  1  0
  1 25  1  0
  3 26  1  0
  4 27  1  0
  7 28  1  0
  8 29  1  0
 10 30  1  0
 11 31  1  0
 13 32  1  0
 14 33  1  0
 17 34  1  0
 18 35  1  0
 19 36  1  0
 22 37  1  0
M  END
