
     RDKit          3D

 48 53  0  0  0  0  0  0  0  0999 V2000
   -5.2780    0.1154   -0.1369 C   0  0  0  0  0  0  0  0  0  0  0  0
   -4.3996   -0.1872    0.7910 C   0  0  0  0  0  0  0  0  0  0  0  0
   -2.9812   -0.1507    0.5500 C   0  0  0  0  0  0  0  0  0  0  0  0
   -2.4460    0.1977   -0.6500 C   0  0  0  0  0  0  0  0  0  0  0  0
   -1.0508    0.2198   -0.8413 C   0  0  0  0  0  0  0  0  0  0  0  0
   -0.1873   -0.1087    0.1740 C   0  0  0  0  0  0  0  0  0  0  0  0
    1.2674   -0.0895   -0.0127 C   0  0  0  0  0  0  0  0  0  0  0  0
    1.9502    0.2286   -1.1251 N   0  0  0  0  0  0  0  0  0  0  0  0
    3.2816    0.1199   -0.8780 C   0  0  0  0  0  0  0  0  0  0  0  0
    4.3689    0.3397   -1.6987 C   0  0  0  0  0  0  0  0  0  0  0  0
    4.2439    0.7392   -3.0123 C   0  0  0  0  0  0  0  0  0  0  0  0
    5.3394    0.9574   -3.8288 C   0  0  0  0  0  0  0  0  0  0  0  0
    6.5840    0.7464   -3.2352 C   0  0  0  0  0  0  0  0  0  0  0  0
    6.7026    0.3565   -1.9528 N   0  0  0  0  0  0  0  0  0  0  0  0
    5.6309    0.1455   -1.1622 C   0  0  0  0  0  0  0  0  0  0  0  0
    5.7841   -0.2534    0.1469 C   0  0  0  0  0  0  0  0  0  0  0  0
    6.9966   -0.4500    0.6954 N   0  0  0  0  0  0  0  0  0  0  0  0
    7.1296   -0.8406    1.9789 C   0  0  0  0  0  0  0  0  0  0  0  0
    6.0362   -1.0614    2.8035 C   0  0  0  0  0  0  0  0  0  0  0  0
    4.7827   -0.8676    2.2675 C   0  0  0  0  0  0  0  0  0  0  0  0
    4.6894   -0.4708    0.9605 C   0  0  0  0  0  0  0  0  0  0  0  0
    3.4258   -0.2805    0.4369 C   0  0  0  0  0  0  0  0  0  0  0  0
    2.1798   -0.3923    0.9133 N   0  0  0  0  0  0  0  0  0  0  0  0
   -0.7489   -0.4575    1.3776 C   0  0  0  0  0  0  0  0  0  0  0  0
   -2.1128   -0.4823    1.5754 C   0  0  0  0  0  0  0  0  0  0  0  0
   -6.7184    0.0800    0.1022 C   0  0  0  0  0  0  0  0  0  0  0  0
   -7.5965    0.4112   -0.9205 C   0  0  0  0  0  0  0  0  0  0  0  0
   -8.9555    0.3831   -0.7123 C   0  0  0  0  0  0  0  0  0  0  0  0
   -9.5001    0.0408    0.4677 N   0  0  0  0  0  0  0  0  0  0  0  0
   -8.6870   -0.2868    1.4841 C   0  0  0  0  0  0  0  0  0  0  0  0
   -7.2969   -0.2668    1.3001 C   0  0  0  0  0  0  0  0  0  0  0  0
   -4.9497    0.4048   -1.1238 H   0  0  0  0  0  0  0  0  0  0  0  0
   -4.7454   -0.4847    1.8061 H   0  0  0  0  0  0  0  0  0  0  0  0
   -3.0483    0.4634   -1.4794 H   0  0  0  0  0  0  0  0  0  0  0  0
   -0.6280    0.4983   -1.8001 H   0  0  0  0  0  0  0  0  0  0  0  0
    3.2582    0.8830   -3.4054 H   0  0  0  0  0  0  0  0  0  0  0  0
    5.2246    1.2690   -4.8519 H   0  0  0  0  0  0  0  0  0  0  0  0
    7.4679    0.9036   -3.8313 H   0  0  0  0  0  0  0  0  0  0  0  0
    8.1326   -0.9827    2.3646 H   0  0  0  0  0  0  0  0  0  0  0  0
    6.1538   -1.3694    3.8145 H   0  0  0  0  0  0  0  0  0  0  0  0
    3.8697   -1.0208    2.8529 H   0  0  0  0  0  0  0  0  0  0  0  0
    1.9638   -0.6860    1.9050 H   0  0  0  0  0  0  0  0  0  0  0  0
   -0.0946   -0.7197    2.1910 H   0  0  0  0  0  0  0  0  0  0  0  0
   -2.4818   -0.7690    2.5566 H   0  0  0  0  0  0  0  0  0  0  0  0
   -7.1734    0.6866   -1.8682 H   0  0  0  0  0  0  0  0  0  0  0  0
   -9.5904    0.6577   -1.5678 H   0  0  0  0  0  0  0  0  0  0  0  0
   -9.1133   -0.5642    2.4388 H   0  0  0  0  0  0  0  0  0  0  0  0
   -6.6802   -0.5361    2.1397 H   0  0  0  0  0  0  0  0  0  0  0  0
  1  2  2  0
  2  3  1  0
  3  4  2  0
  4  5  1  0
  5  6  2  0
  6  7  1  0
  7  8  2  0
  8  9  1  0
  9 10  2  0
 10 11  1  0
 11 12  2  0
 12 13  1  0
 13 14  2  0
 14 15  1  0
 15 16  2  0
 16 17  1  0
 17 18  2  0
 18 19  1  0
 19 20  2  0
 20 21  1  0
 21 22  2  0
 22 23  1  0
  6 24  1  0
 24 25  2  0
  1 26  1  0
 26 27  2  0
 27 28  1  0
 28 29  2  0
 29 30  1  0
 30 31  2  0
 25  3  1  0
 31 26  1  0
 23  7  1  0
 22  9  1  0
 15 10  1  0
 21 16  1  0
  1 32  1  0
  2 33  1  0
  4 34  1  0
  5 35  1  0
 11 36  1  0
 12 37  1  0
 13 38  1  0
 18 39  1  0
 19 40  1  0
 20 41  1  0
 23 42  1  0
 24 43  1  0
 25 44  1  0
 27 45  1  0
 28 46  1  0
 30 47  1  0
 31 48  1  0
M  END
