
     RDKit          3D

 42 45  0  0  0  0  0  0  0  0999 V2000
   -2.2709   -2.9974   -0.7045 C   0  0  0  0  0  0  0  0  0  0  0  0
   -2.4813   -1.6580   -1.3709 C   0  0  0  0  0  0  0  0  0  0  0  0
   -2.5229   -0.6139   -0.3707 N   0  0  0  0  0  0  0  0  0  0  0  0
   -3.5984   -0.1505    0.2685 C   0  0  0  0  0  0  0  0  0  0  0  0
   -4.9240   -0.5019    0.1837 C   0  0  0  0  0  0  0  0  0  0  0  0
   -5.8403    0.1456    0.9694 C   0  0  0  0  0  0  0  0  0  0  0  0
   -5.4638    1.1480    1.8490 C   0  0  0  0  0  0  0  0  0  0  0  0
   -4.1336    1.5076    1.9400 C   0  0  0  0  0  0  0  0  0  0  0  0
   -3.2252    0.8460    1.1427 C   0  0  0  0  0  0  0  0  0  0  0  0
   -1.8392    1.0053    1.0353 C   0  0  0  0  0  0  0  0  0  0  0  0
   -0.9510    1.8431    1.6646 C   0  0  0  0  0  0  0  0  0  0  0  0
    0.3805    1.7511    1.3317 C   0  0  0  0  0  0  0  0  0  0  0  0
    0.8331    0.8346    0.3804 C   0  0  0  0  0  0  0  0  0  0  0  0
    2.2493    0.7402    0.0318 C   0  0  0  0  0  0  0  0  0  0  0  0
    3.0900    1.8313    0.0538 C   0  0  0  0  0  0  0  0  0  0  0  0
    4.4303    1.7246   -0.2741 C   0  0  0  0  0  0  0  0  0  0  0  0
    4.9873    0.5100   -0.6401 C   0  0  0  0  0  0  0  0  0  0  0  0
    6.3260    0.4873   -0.9500 O   0  0  0  0  0  0  0  0  0  0  0  0
    7.0493   -0.6539   -1.3388 C   0  0  0  0  0  0  0  0  0  0  0  0
    4.1672   -0.5895   -0.6684 C   0  0  0  0  0  0  0  0  0  0  0  0
    2.8221   -0.4757   -0.3382 C   0  0  0  0  0  0  0  0  0  0  0  0
   -0.0911    0.0147   -0.2254 C   0  0  0  0  0  0  0  0  0  0  0  0
   -1.4439    0.0816    0.0873 C   0  0  0  0  0  0  0  0  0  0  0  0
   -2.7007   -3.0056    0.3162 H   0  0  0  0  0  0  0  0  0  0  0  0
   -1.1949   -3.2526   -0.6237 H   0  0  0  0  0  0  0  0  0  0  0  0
   -2.7501   -3.8158   -1.2788 H   0  0  0  0  0  0  0  0  0  0  0  0
   -1.6606   -1.4144   -2.0963 H   0  0  0  0  0  0  0  0  0  0  0  0
   -3.4583   -1.7184   -1.9146 H   0  0  0  0  0  0  0  0  0  0  0  0
   -5.1982   -1.2837   -0.5037 H   0  0  0  0  0  0  0  0  0  0  0  0
   -6.8965   -0.1004    0.9346 H   0  0  0  0  0  0  0  0  0  0  0  0
   -6.2324    1.6431    2.4620 H   0  0  0  0  0  0  0  0  0  0  0  0
   -3.8349    2.2869    2.6222 H   0  0  0  0  0  0  0  0  0  0  0  0
   -1.2521    2.5609    2.3996 H   0  0  0  0  0  0  0  0  0  0  0  0
    1.1506    2.3679    1.7738 H   0  0  0  0  0  0  0  0  0  0  0  0
    2.6875    2.7881    0.3330 H   0  0  0  0  0  0  0  0  0  0  0  0
    5.0785    2.6152   -0.2491 H   0  0  0  0  0  0  0  0  0  0  0  0
    7.9283   -0.4125   -1.9626 H   0  0  0  0  0  0  0  0  0  0  0  0
    7.3874   -1.2012   -0.4118 H   0  0  0  0  0  0  0  0  0  0  0  0
    6.3956   -1.3088   -1.9134 H   0  0  0  0  0  0  0  0  0  0  0  0
    4.6097   -1.5328   -0.9559 H   0  0  0  0  0  0  0  0  0  0  0  0
    2.1937   -1.3357   -0.3652 H   0  0  0  0  0  0  0  0  0  0  0  0
    0.1976   -0.7104   -0.9660 H   0  0  0  0  0  0  0  0  0  0  0  0
  1  2  1  0
  2  3  1  0
  3  4  1  0
  4  5  2  0
  5  6  1  0
  6  7  2  0
  7  8  1  0
  8  9  2  0
  9 10  1  0
 10 11  2  0
 11 12  1  0
 12 13  2  0
 13 14  1  0
 14 15  2  0
 15 16  1  0
 16 17  2  0
 17 18  1  0
 18 19  1  0
 17 20  1  0
 20 21  2  0
 13 22  1  0
 22 23  2  0
 23  3  1  0
  9  4  1  0
 23 10  1  0
 21 14  1  0
  1 24  1  0
  1 25  1  0
  1 26  1  0
  2 27  1  0
  2 28  1  0
  5 29  1  0
  6 30  1  0
  7 31  1  0
  8 32  1  0
 11 33  1  0
 12 34  1  0
 15 35  1  0
 16 36  1  0
 19 37  1  0
 19 38  1  0
 19 39  1  0
 20 40  1  0
 21 41  1  0
 22 42  1  0
M  END
