
     RDKit          3D

 98107  0  0  0  0  0  0  0  0999 V2000
    8.8931    0.6356    0.2718 C   0  0  0  0  0  0  0  0  0  0  0  0
    7.9319   -0.0198    1.2248 C   0  0  0  0  0  0  0  0  0  0  0  0
    8.2688   -1.4907    1.4343 C   0  0  0  0  0  0  0  0  0  0  0  0
    8.1247    0.6305    2.5928 C   0  0  0  0  0  0  0  0  0  0  0  0
    6.5414    0.1429    0.7560 C   0  0  0  0  0  0  0  0  0  0  0  0
    6.2441    0.7504   -0.4317 C   0  0  0  0  0  0  0  0  0  0  0  0
    4.9308    0.9125   -0.8710 C   0  0  0  0  0  0  0  0  0  0  0  0
    3.8819    0.4785   -0.1419 C   0  0  0  0  0  0  0  0  0  0  0  0
    2.4642    0.5639   -0.3715 C   0  0  0  0  0  0  0  0  0  0  0  0
    1.8277    1.7522   -0.0916 C   0  0  0  0  0  0  0  0  0  0  0  0
    2.5807    2.8491    0.2404 C   0  0  0  0  0  0  0  0  0  0  0  0
    1.9633    4.0614    0.5531 C   0  0  0  0  0  0  0  0  0  0  0  0
    0.5948    4.1627    0.5313 C   0  0  0  0  0  0  0  0  0  0  0  0
   -0.1718    3.0567    0.1950 C   0  0  0  0  0  0  0  0  0  0  0  0
   -1.5454    3.1024    0.1908 C   0  0  0  0  0  0  0  0  0  0  0  0
   -2.1888    4.3374    0.5831 C   0  0  0  0  0  0  0  0  0  0  0  0
   -2.6589    5.1840   -0.3895 C   0  0  0  0  0  0  0  0  0  0  0  0
   -3.2983    6.3767   -0.0768 C   0  0  0  0  0  0  0  0  0  0  0  0
   -3.4511    6.6984    1.2527 C   0  0  0  0  0  0  0  0  0  0  0  0
   -2.9822    5.8544    2.2426 C   0  0  0  0  0  0  0  0  0  0  0  0
   -2.3564    4.6838    1.9140 C   0  0  0  0  0  0  0  0  0  0  0  0
   -2.2620    1.9720   -0.1222 C   0  0  0  0  0  0  0  0  0  0  0  0
   -1.6669    0.7847   -0.4320 C   0  0  0  0  0  0  0  0  0  0  0  0
   -2.4154   -0.3318   -0.7114 C   0  0  0  0  0  0  0  0  0  0  0  0
   -3.8652   -0.2720   -0.6070 C   0  0  0  0  0  0  0  0  0  0  0  0
   -4.7508    0.0047   -1.5967 C   0  0  0  0  0  0  0  0  0  0  0  0
   -6.0983    0.0196   -1.3453 C   0  0  0  0  0  0  0  0  0  0  0  0
   -6.6238   -0.2401   -0.0907 C   0  0  0  0  0  0  0  0  0  0  0  0
   -8.0461   -0.2486    0.2499 C   0  0  0  0  0  0  0  0  0  0  0  0
   -8.1638   -0.1518    1.7788 C   0  0  0  0  0  0  0  0  0  0  0  0
   -8.6249   -1.6114   -0.1181 C   0  0  0  0  0  0  0  0  0  0  0  0
   -8.8574    0.8670   -0.3477 C   0  0  0  0  0  0  0  0  0  0  0  0
   -5.7112   -0.5218    0.9180 C   0  0  0  0  0  0  0  0  0  0  0  0
   -4.3687   -0.5382    0.6691 C   0  0  0  0  0  0  0  0  0  0  0  0
   -1.7670   -1.5192   -1.0021 C   0  0  0  0  0  0  0  0  0  0  0  0
   -2.5942   -2.5989   -1.2498 C   0  0  0  0  0  0  0  0  0  0  0  0
   -1.9714   -3.7893   -1.5130 C   0  0  0  0  0  0  0  0  0  0  0  0
   -0.5805   -3.8767   -1.5260 C   0  0  0  0  0  0  0  0  0  0  0  0
    0.2393   -2.7971   -1.2811 C   0  0  0  0  0  0  0  0  0  0  0  0
    1.6283   -2.9174   -1.2675 C   0  0  0  0  0  0  0  0  0  0  0  0
    2.2516   -4.1845   -1.5730 C   0  0  0  0  0  0  0  0  0  0  0  0
    3.1954   -4.6876   -0.6663 C   0  0  0  0  0  0  0  0  0  0  0  0
    3.8288   -5.8834   -0.8860 C   0  0  0  0  0  0  0  0  0  0  0  0
    3.5611   -6.6393   -2.0082 C   0  0  0  0  0  0  0  0  0  0  0  0
    2.6405   -6.1587   -2.9024 C   0  0  0  0  0  0  0  0  0  0  0  0
    1.9990   -4.9476   -2.6852 C   0  0  0  0  0  0  0  0  0  0  0  0
    2.3815   -1.7708   -0.9648 C   0  0  0  0  0  0  0  0  0  0  0  0
    1.7678   -0.5716   -0.6933 C   0  0  0  0  0  0  0  0  0  0  0  0
    0.3671   -0.4869   -0.7201 C   0  0  0  0  0  0  0  0  0  0  0  0
   -0.3811   -1.6036   -1.0144 C   0  0  0  0  0  0  0  0  0  0  0  0
   -0.2758    0.7033   -0.4363 C   0  0  0  0  0  0  0  0  0  0  0  0
    0.4410    1.8622   -0.1150 C   0  0  0  0  0  0  0  0  0  0  0  0
    4.2002   -0.1523    1.0924 C   0  0  0  0  0  0  0  0  0  0  0  0
    5.4790   -0.3183    1.5313 C   0  0  0  0  0  0  0  0  0  0  0  0
    8.9989    0.0817   -0.6810 H   0  0  0  0  0  0  0  0  0  0  0  0
    9.9203    0.7050    0.7118 H   0  0  0  0  0  0  0  0  0  0  0  0
    8.6192    1.6775    0.0446 H   0  0  0  0  0  0  0  0  0  0  0  0
    7.9457   -2.1209    0.5709 H   0  0  0  0  0  0  0  0  0  0  0  0
    9.3383   -1.6009    1.6389 H   0  0  0  0  0  0  0  0  0  0  0  0
    7.6815   -1.8169    2.3393 H   0  0  0  0  0  0  0  0  0  0  0  0
    8.0080    1.7086    2.4808 H   0  0  0  0  0  0  0  0  0  0  0  0
    9.1849    0.4297    2.8883 H   0  0  0  0  0  0  0  0  0  0  0  0
    7.4611    0.1929    3.3688 H   0  0  0  0  0  0  0  0  0  0  0  0
    7.0303    1.1436   -1.0968 H   0  0  0  0  0  0  0  0  0  0  0  0
    4.7404    1.3913   -1.8130 H   0  0  0  0  0  0  0  0  0  0  0  0
    3.6572    2.7519    0.2526 H   0  0  0  0  0  0  0  0  0  0  0  0
    2.5740    4.9265    0.8210 H   0  0  0  0  0  0  0  0  0  0  0  0
    0.0768    5.0809    0.7712 H   0  0  0  0  0  0  0  0  0  0  0  0
   -2.5623    4.9857   -1.4560 H   0  0  0  0  0  0  0  0  0  0  0  0
   -3.6663    7.0525   -0.8296 H   0  0  0  0  0  0  0  0  0  0  0  0
   -3.9331    7.6157    1.5305 H   0  0  0  0  0  0  0  0  0  0  0  0
   -3.0873    6.0827    3.2982 H   0  0  0  0  0  0  0  0  0  0  0  0
   -1.9761    3.9992    2.6562 H   0  0  0  0  0  0  0  0  0  0  0  0
   -3.3456    1.9840   -0.1306 H   0  0  0  0  0  0  0  0  0  0  0  0
   -4.3780    0.2063   -2.6025 H   0  0  0  0  0  0  0  0  0  0  0  0
   -6.8300    0.2357   -2.1208 H   0  0  0  0  0  0  0  0  0  0  0  0
   -7.4863    0.6065    2.1772 H   0  0  0  0  0  0  0  0  0  0  0  0
   -9.2475    0.0853    2.0160 H   0  0  0  0  0  0  0  0  0  0  0  0
   -7.9648   -1.1197    2.2785 H   0  0  0  0  0  0  0  0  0  0  0  0
   -7.9697   -2.3570    0.3982 H   0  0  0  0  0  0  0  0  0  0  0  0
   -8.6459   -1.8083   -1.1887 H   0  0  0  0  0  0  0  0  0  0  0  0
   -9.6070   -1.7006    0.3984 H   0  0  0  0  0  0  0  0  0  0  0  0
   -9.5683    1.2494    0.4437 H   0  0  0  0  0  0  0  0  0  0  0  0
   -8.2560    1.7444   -0.6586 H   0  0  0  0  0  0  0  0  0  0  0  0
   -9.5009    0.4850   -1.1627 H   0  0  0  0  0  0  0  0  0  0  0  0
   -6.0320   -0.7417    1.9503 H   0  0  0  0  0  0  0  0  0  0  0  0
   -3.6702   -0.7651    1.4985 H   0  0  0  0  0  0  0  0  0  0  0  0
   -3.6849   -2.5011   -1.2302 H   0  0  0  0  0  0  0  0  0  0  0  0
   -2.5708   -4.6539   -1.7039 H   0  0  0  0  0  0  0  0  0  0  0  0
   -0.1869   -4.8615   -1.7159 H   0  0  0  0  0  0  0  0  0  0  0  0
    3.4089   -4.0907    0.2196 H   0  0  0  0  0  0  0  0  0  0  0  0
    4.5649   -6.2974   -0.2016 H   0  0  0  0  0  0  0  0  0  0  0  0
    4.0618   -7.5745   -2.1706 H   0  0  0  0  0  0  0  0  0  0  0  0
    2.4411   -6.7615   -3.7765 H   0  0  0  0  0  0  0  0  0  0  0  0
    1.3022   -4.6262   -3.4487 H   0  0  0  0  0  0  0  0  0  0  0  0
    3.4604   -1.8200   -0.9441 H   0  0  0  0  0  0  0  0  0  0  0  0
    3.4021   -0.5251    1.7381 H   0  0  0  0  0  0  0  0  0  0  0  0
    5.7413   -0.7965    2.4678 H   0  0  0  0  0  0  0  0  0  0  0  0
  1  2  1  0
  2  3  1  0
  2  4  1  0
  2  5  1  0
  5  6  2  0
  6  7  1  0
  7  8  2  0
  8  9  1  0
  9 10  1  0
 10 11  2  0
 11 12  1  0
 12 13  2  0
 13 14  1  0
 14 15  2  0
 15 16  1  0
 16 17  2  0
 17 18  1  0
 18 19  2  0
 19 20  1  0
 20 21  2  0
 15 22  1  0
 22 23  2  0
 23 24  1  0
 24 25  1  0
 25 26  2  0
 26 27  1  0
 27 28  2  0
 28 29  1  0
 29 30  1  0
 29 31  1  0
 29 32  1  0
 28 33  1  0
 33 34  2  0
 24 35  2  0
 35 36  1  0
 36 37  2  0
 37 38  1  0
 38 39  2  0
 39 40  1  0
 40 41  1  0
 41 42  2  0
 42 43  1  0
 43 44  2  0
 44 45  1  0
 45 46  2  0
 40 47  2  0
 47 48  1  0
 48 49  1  0
 49 50  2  0
 49 51  1  0
 51 52  2  0
  8 53  1  0
 53 54  2  0
 54  5  1  0
 48  9  2  0
 52 10  1  0
 52 14  1  0
 21 16  1  0
 51 23  1  0
 34 25  1  0
 50 35  1  0
 50 39  1  0
 46 41  1  0
  1 55  1  0
  1 56  1  0
  1 57  1  0
  3 58  1  0
  3 59  1  0
  3 60  1  0
  4 61  1  0
  4 62  1  0
  4 63  1  0
  6 64  1  0
  7 65  1  0
 11 66  1  0
 12 67  1  0
 13 68  1  0
 17 69  1  0
 18 70  1  0
 19 71  1  0
 20 72  1  0
 21 73  1  0
 22 74  1  0
 26 75  1  0
 27 76  1  0
 30 77  1  0
 30 78  1  0
 30 79  1  0
 31 80  1  0
 31 81  1  0
 31 82  1  0
 32 83  1  0
 32 84  1  0
 32 85  1  0
 33 86  1  0
 34 87  1  0
 36 88  1  0
 37 89  1  0
 38 90  1  0
 42 91  1  0
 43 92  1  0
 44 93  1  0
 45 94  1  0
 46 95  1  0
 47 96  1  0
 53 97  1  0
 54 98  1  0
M  END
