
     RDKit          3D

 41 44  0  0  0  0  0  0  0  0999 V2000
   -3.1378   -0.7644   -1.9556 C   0  0  0  0  0  0  0  0  0  0  0  0
   -2.0934   -0.5075   -0.9885 N   0  0  0  0  0  0  0  0  0  0  0  0
   -1.6804   -1.4672   -0.0239 C   0  0  0  0  0  0  0  0  0  0  0  0
   -2.2927   -2.7151    0.0270 C   0  0  0  0  0  0  0  0  0  0  0  0
   -1.9039   -3.6687    0.9668 C   0  0  0  0  0  0  0  0  0  0  0  0
   -0.9009   -3.4008    1.8725 C   0  0  0  0  0  0  0  0  0  0  0  0
   -0.3119   -2.1725    1.8084 C   0  0  0  0  0  0  0  0  0  0  0  0
   -0.6803   -1.2031    0.8814 C   0  0  0  0  0  0  0  0  0  0  0  0
    0.0421    0.0854    0.9266 C   0  0  0  0  0  0  0  0  0  0  0  0
   -0.1154    0.6861    2.2051 O   0  0  0  0  0  0  0  0  0  0  0  0
    1.5048   -0.1026    0.7318 C   0  0  0  0  0  0  0  0  0  0  0  0
    1.9976   -0.6368   -0.4655 C   0  0  0  0  0  0  0  0  0  0  0  0
    3.3618   -0.8021   -0.6251 C   0  0  0  0  0  0  0  0  0  0  0  0
    4.2230   -0.4415    0.3909 C   0  0  0  0  0  0  0  0  0  0  0  0
    3.7147    0.0830    1.5618 C   0  0  0  0  0  0  0  0  0  0  0  0
    2.3526    0.2596    1.7489 C   0  0  0  0  0  0  0  0  0  0  0  0
   -0.4189    1.0564   -0.0913 C   0  0  0  0  0  0  0  0  0  0  0  0
    0.2232    2.2889   -0.0893 C   0  0  0  0  0  0  0  0  0  0  0  0
   -0.1211    3.2530   -0.9756 C   0  0  0  0  0  0  0  0  0  0  0  0
    0.5418    4.5002   -0.9583 N   0  0  0  0  0  4  0  0  0  0  0  0
    0.2184    5.3733   -1.7711 O   0  0  0  0  0  0  0  0  0  0  0  0
    1.5286    4.7385   -0.0527 O   0  0  0  0  0  1  0  0  0  0  0  0
   -1.1367    2.9712   -1.8869 C   0  0  0  0  0  0  0  0  0  0  0  0
   -1.7640    1.7524   -1.8807 C   0  0  0  0  0  0  0  0  0  0  0  0
   -1.4200    0.7427   -0.9703 C   0  0  0  0  0  0  0  0  0  0  0  0
   -3.3469   -1.8091   -2.1527 H   0  0  0  0  0  0  0  0  0  0  0  0
   -4.0384   -0.2168   -1.5885 H   0  0  0  0  0  0  0  0  0  0  0  0
   -2.8089   -0.3470   -2.9583 H   0  0  0  0  0  0  0  0  0  0  0  0
   -3.0887   -3.0077   -0.6424 H   0  0  0  0  0  0  0  0  0  0  0  0
   -2.3717   -4.6445    1.0174 H   0  0  0  0  0  0  0  0  0  0  0  0
   -0.5730   -4.1132    2.6140 H   0  0  0  0  0  0  0  0  0  0  0  0
    0.4848   -1.9505    2.5209 H   0  0  0  0  0  0  0  0  0  0  0  0
    0.1098    0.0161    2.8714 H   0  0  0  0  0  0  0  0  0  0  0  0
    1.2963   -0.9177   -1.2610 H   0  0  0  0  0  0  0  0  0  0  0  0
    3.7847   -1.2121   -1.5374 H   0  0  0  0  0  0  0  0  0  0  0  0
    5.2902   -0.5663    0.2774 H   0  0  0  0  0  0  0  0  0  0  0  0
    4.4407    0.3531    2.3352 H   0  0  0  0  0  0  0  0  0  0  0  0
    2.0319    0.6762    2.6922 H   0  0  0  0  0  0  0  0  0  0  0  0
    1.0194    2.5119    0.6239 H   0  0  0  0  0  0  0  0  0  0  0  0
   -1.4200    3.7209   -2.5918 H   0  0  0  0  0  0  0  0  0  0  0  0
   -2.5413    1.5982   -2.6067 H   0  0  0  0  0  0  0  0  0  0  0  0
  1  2  1  0
  2  3  1  0
  3  4  2  0
  4  5  1  0
  5  6  2  0
  6  7  1  0
  7  8  2  0
  8  9  1  0
  9 10  1  0
  9 11  1  0
 11 12  2  0
 12 13  1  0
 13 14  2  0
 14 15  1  0
 15 16  2  0
  9 17  1  0
 17 18  2  0
 18 19  1  0
 19 20  1  0
 20 21  2  0
 20 22  1  0
 19 23  2  0
 23 24  1  0
 24 25  2  0
 25  2  1  0
  8  3  1  0
 16 11  1  0
 25 17  1  0
  1 26  1  0
  1 27  1  0
  1 28  1  0
  4 29  1  0
  5 30  1  0
  6 31  1  0
  7 32  1  0
 10 33  1  0
 12 34  1  0
 13 35  1  0
 14 36  1  0
 15 37  1  0
 16 38  1  0
 18 39  1  0
 23 40  1  0
 24 41  1  0
M  CHG  2  20   1  22  -1
M  END
