
     RDKit          3D

 43 45  0  0  0  0  0  0  0  0999 V2000
   -1.4893    4.2950   -0.3044 C   0  0  0  0  0  0  0  0  0  0  0  0
   -2.6982    3.5971   -0.4389 O   0  0  0  0  0  0  0  0  0  0  0  0
   -2.6407    2.1920   -0.5961 C   0  0  0  0  0  0  0  0  0  0  0  0
   -1.3750    1.5945   -0.5210 C   0  0  0  0  0  0  0  0  0  0  0  0
   -1.2274    0.2258   -0.6635 C   0  0  0  0  0  0  0  0  0  0  0  0
    0.1081   -0.3620   -0.4543 C   0  0  0  0  0  0  0  0  0  0  0  0
    0.3919   -1.6236   -0.6650 C   0  0  0  0  0  0  0  0  0  0  0  0
    1.7788   -2.0657   -0.3962 C   0  0  0  0  0  0  0  0  0  0  0  0
    2.3500   -3.2416   -0.6559 N   0  0  0  0  0  0  0  0  0  0  0  0
    3.6307   -3.2386   -0.2465 C   0  0  0  0  0  0  0  0  0  0  0  0
    3.8430   -1.9813    0.2951 C   0  0  0  0  0  0  0  0  0  0  0  0
    5.0981   -1.5207    0.8756 C   0  0  0  0  0  0  0  0  0  0  0  0
    5.2084   -0.2563    1.4095 C   0  0  0  0  0  0  0  0  0  0  0  0
    6.3993    0.1959    1.9746 C   0  0  0  0  0  0  0  0  0  0  0  0
    7.4845   -0.6341    2.0004 N   0  0  0  0  0  0  0  0  0  0  0  0
    7.3767   -1.8610    1.4799 C   0  0  0  0  0  0  0  0  0  0  0  0
    6.1938   -2.3275    0.9117 C   0  0  0  0  0  0  0  0  0  0  0  0
    2.7209   -1.3260    0.1827 O   0  0  0  0  0  0  0  0  0  0  0  0
   -2.3499   -0.5017   -0.8797 C   0  0  0  0  0  0  0  0  0  0  0  0
   -3.6426    0.0682   -0.9607 C   0  0  0  0  0  0  0  0  0  0  0  0
   -4.6773   -0.6438   -1.1557 O   0  0  0  0  0  0  0  0  0  0  0  0
   -5.6200   -1.4810   -1.3553 C   0  0  0  0  0  0  0  0  0  0  0  0
   -3.7662    1.4769   -0.8090 C   0  0  0  0  0  0  0  0  0  0  0  0
   -5.0182    2.0606   -0.8808 O   0  0  0  0  0  0  0  0  0  0  0  0
   -5.7986    2.1718    0.2884 C   0  0  0  0  0  0  0  0  0  0  0  0
   -1.0735    4.2222    0.7343 H   0  0  0  0  0  0  0  0  0  0  0  0
   -1.7160    5.3941   -0.4196 H   0  0  0  0  0  0  0  0  0  0  0  0
   -0.7268    4.0412   -1.0804 H   0  0  0  0  0  0  0  0  0  0  0  0
   -0.4915    2.1732   -0.3517 H   0  0  0  0  0  0  0  0  0  0  0  0
    0.9120    0.3012   -0.1032 H   0  0  0  0  0  0  0  0  0  0  0  0
   -0.3525   -2.3123   -1.0233 H   0  0  0  0  0  0  0  0  0  0  0  0
    4.3623   -4.0142   -0.3087 H   0  0  0  0  0  0  0  0  0  0  0  0
    4.3489    0.3741    1.3749 H   0  0  0  0  0  0  0  0  0  0  0  0
    6.4577    1.1936    2.3855 H   0  0  0  0  0  0  0  0  0  0  0  0
    8.2062   -2.5474    1.4791 H   0  0  0  0  0  0  0  0  0  0  0  0
    6.1576   -3.3392    0.4968 H   0  0  0  0  0  0  0  0  0  0  0  0
   -2.2418   -1.5791   -0.9973 H   0  0  0  0  0  0  0  0  0  0  0  0
   -5.3020   -2.5315   -1.6960 H   0  0  0  0  0  0  0  0  0  0  0  0
   -6.2707   -1.6240   -0.4335 H   0  0  0  0  0  0  0  0  0  0  0  0
   -6.3836   -1.1332   -2.1230 H   0  0  0  0  0  0  0  0  0  0  0  0
   -5.7083    3.1444    0.8074 H   0  0  0  0  0  0  0  0  0  0  0  0
   -6.8902    2.0493    0.0410 H   0  0  0  0  0  0  0  0  0  0  0  0
   -5.5686    1.3747    1.0284 H   0  0  0  0  0  0  0  0  0  0  0  0
  1  2  1  0
  2  3  1  0
  3  4  2  0
  4  5  1  0
  5  6  1  0
  6  7  2  0
  7  8  1  0
  8  9  2  0
  9 10  1  0
 10 11  2  0
 11 12  1  0
 12 13  2  0
 13 14  1  0
 14 15  2  0
 15 16  1  0
 16 17  2  0
 11 18  1  0
  5 19  2  0
 19 20  1  0
 20 21  1  0
 21 22  1  0
 20 23  2  0
 23 24  1  0
 24 25  1  0
 23  3  1  0
 18  8  1  0
 17 12  1  0
  1 26  1  0
  1 27  1  0
  1 28  1  0
  4 29  1  0
  6 30  1  0
  7 31  1  0
 10 32  1  0
 13 33  1  0
 14 34  1  0
 16 35  1  0
 17 36  1  0
 19 37  1  0
 22 38  1  0
 22 39  1  0
 22 40  1  0
 25 41  1  0
 25 42  1  0
 25 43  1  0
M  END
