
     RDKit          3D

 33 36  0  0  0  0  0  0  0  0999 V2000
   -5.8662    0.1792   -0.4880 C   0  0  0  0  0  0  0  0  0  0  0  0
   -4.4101    0.5924   -0.4844 C   0  0  0  0  0  0  0  0  0  0  0  0
   -4.0744    1.7478   -0.7585 O   0  0  0  0  0  0  0  0  0  0  0  0
   -3.4697   -0.4087   -0.1532 N   0  0  0  0  0  0  0  0  0  0  0  0
   -2.0735   -0.2126   -0.0978 C   0  0  0  0  0  0  0  0  0  0  0  0
   -1.4045    0.9454   -0.3497 C   0  0  0  0  0  0  0  0  0  0  0  0
   -0.0102    1.0152   -0.2613 C   0  0  0  0  0  0  0  0  0  0  0  0
    0.6533    2.1997   -0.5205 C   0  0  0  0  0  0  0  0  0  0  0  0
    2.0272    2.2896   -0.4390 C   0  0  0  0  0  0  0  0  0  0  0  0
    2.7812    1.1819   -0.0914 C   0  0  0  0  0  0  0  0  0  0  0  0
    4.1619    1.2373   -0.0002 C   0  0  0  0  0  0  0  0  0  0  0  0
    4.9063    0.1300    0.3466 C   0  0  0  0  0  0  0  0  0  0  0  0
    4.2460   -1.0461    0.6039 C   0  0  0  0  0  0  0  0  0  0  0  0
    2.8615   -1.1233    0.5181 C   0  0  0  0  0  0  0  0  0  0  0  0
    2.2224   -2.3164    0.7815 C   0  0  0  0  0  0  0  0  0  0  0  0
    0.8485   -2.3475    0.6845 C   0  0  0  0  0  0  0  0  0  0  0  0
    0.0767   -1.2639    0.3418 C   0  0  0  0  0  0  0  0  0  0  0  0
   -1.2924   -1.3115    0.2495 C   0  0  0  0  0  0  0  0  0  0  0  0
    0.7435   -0.0832    0.0839 C   0  0  0  0  0  0  0  0  0  0  0  0
    2.1216    0.0020    0.1670 C   0  0  0  0  0  0  0  0  0  0  0  0
   -5.9672   -0.9156   -0.5862 H   0  0  0  0  0  0  0  0  0  0  0  0
   -6.3295    0.5212    0.4628 H   0  0  0  0  0  0  0  0  0  0  0  0
   -6.4008    0.6411   -1.3426 H   0  0  0  0  0  0  0  0  0  0  0  0
   -3.8758   -1.3733    0.0662 H   0  0  0  0  0  0  0  0  0  0  0  0
   -1.9135    1.8318   -0.6207 H   0  0  0  0  0  0  0  0  0  0  0  0
    0.0542    3.0628   -0.7923 H   0  0  0  0  0  0  0  0  0  0  0  0
    2.5550    3.2076   -0.6388 H   0  0  0  0  0  0  0  0  0  0  0  0
    4.6595    2.1736   -0.2072 H   0  0  0  0  0  0  0  0  0  0  0  0
    5.9895    0.1367    0.4277 H   0  0  0  0  0  0  0  0  0  0  0  0
    4.7729   -1.9596    0.8833 H   0  0  0  0  0  0  0  0  0  0  0  0
    2.8222   -3.1829    1.0542 H   0  0  0  0  0  0  0  0  0  0  0  0
    0.3333   -3.2736    0.8875 H   0  0  0  0  0  0  0  0  0  0  0  0
   -1.7490   -2.2771    0.4673 H   0  0  0  0  0  0  0  0  0  0  0  0
  1  2  1  0
  2  3  2  0
  2  4  1  0
  4  5  1  0
  5  6  2  0
  6  7  1  0
  7  8  2  0
  8  9  1  0
  9 10  2  0
 10 11  1  0
 11 12  2  0
 12 13  1  0
 13 14  2  0
 14 15  1  0
 15 16  2  0
 16 17  1  0
 17 18  2  0
 17 19  1  0
 19 20  2  0
 18  5  1  0
 19  7  1  0
 20 10  1  0
 20 14  1  0
  1 21  1  0
  1 22  1  0
  1 23  1  0
  4 24  1  0
  6 25  1  0
  8 26  1  0
  9 27  1  0
 11 28  1  0
 12 29  1  0
 13 30  1  0
 15 31  1  0
 16 32  1  0
 18 33  1  0
M  END
