
     RDKit          3D

 34 36  0  0  0  0  0  0  0  0999 V2000
    7.1191    0.6788   -1.0535 C   0  0  0  0  0  0  0  0  0  0  0  0
    6.3741    0.5875    0.5996 S   0  0  0  0  0  0  0  0  0  0  0  0
    4.5992    0.4163    0.4459 C   0  0  0  0  0  0  0  0  0  0  0  0
    3.7942    1.5347    0.3996 C   0  0  0  0  0  0  0  0  0  0  0  0
    2.4117    1.4435    0.2807 C   0  0  0  0  0  0  0  0  0  0  0  0
    1.7921    0.2102    0.2041 C   0  0  0  0  0  0  0  0  0  0  0  0
    0.3524    0.1497    0.0810 C   0  0  0  0  0  0  0  0  0  0  0  0
   -0.2589   -1.0077    0.0065 C   0  0  0  0  0  0  0  0  0  0  0  0
   -1.7217   -0.9749   -0.1167 C   0  0  0  0  0  0  0  0  0  0  0  0
   -2.3791   -2.1825   -0.1961 C   0  0  0  0  0  0  0  0  0  0  0  0
   -3.7089   -2.2023   -0.3091 N   0  0  0  0  0  0  0  0  0  0  0  0
   -4.4076   -1.0378   -0.3453 C   0  0  0  0  0  0  0  0  0  0  0  0
   -5.7815   -1.0358   -0.4616 C   0  0  0  0  0  0  0  0  0  0  0  0
   -6.5374    0.1111   -0.5030 C   0  0  0  0  0  0  0  0  0  0  0  0
   -5.8611    1.2996   -0.4224 C   0  0  0  0  0  0  0  0  0  0  0  0
   -4.4915    1.3234   -0.3060 C   0  0  0  0  0  0  0  0  0  0  0  0
   -3.7486    0.1654   -0.2659 C   0  0  0  0  0  0  0  0  0  0  0  0
   -2.3973    0.1916   -0.1510 N   0  0  0  0  0  0  0  0  0  0  0  0
    2.5875   -0.9045    0.2496 C   0  0  0  0  0  0  0  0  0  0  0  0
    3.9774   -0.8026    0.3694 C   0  0  0  0  0  0  0  0  0  0  0  0
    7.9483    1.4292   -1.0933 H   0  0  0  0  0  0  0  0  0  0  0  0
    6.3468    1.0634   -1.7813 H   0  0  0  0  0  0  0  0  0  0  0  0
    7.4665   -0.3099   -1.4126 H   0  0  0  0  0  0  0  0  0  0  0  0
    4.2209    2.5337    0.4553 H   0  0  0  0  0  0  0  0  0  0  0  0
    1.7859    2.3223    0.2449 H   0  0  0  0  0  0  0  0  0  0  0  0
   -0.2174    1.0920    0.0512 H   0  0  0  0  0  0  0  0  0  0  0  0
    0.2328   -1.9597    0.0295 H   0  0  0  0  0  0  0  0  0  0  0  0
   -1.8637   -3.1347   -0.1712 H   0  0  0  0  0  0  0  0  0  0  0  0
   -6.3173   -1.9919   -0.5257 H   0  0  0  0  0  0  0  0  0  0  0  0
   -7.6266    0.0954   -0.5955 H   0  0  0  0  0  0  0  0  0  0  0  0
   -6.4691    2.2102   -0.4560 H   0  0  0  0  0  0  0  0  0  0  0  0
   -3.9887    2.2785   -0.2447 H   0  0  0  0  0  0  0  0  0  0  0  0
    2.1928   -1.9038    0.1966 H   0  0  0  0  0  0  0  0  0  0  0  0
    4.5750   -1.6885    0.4027 H   0  0  0  0  0  0  0  0  0  0  0  0
  1  2  1  0
  2  3  1  0
  3  4  2  0
  4  5  1  0
  5  6  2  0
  6  7  1  0
  7  8  2  0
  8  9  1  0
  9 10  2  0
 10 11  1  0
 11 12  2  0
 12 13  1  0
 13 14  2  0
 14 15  1  0
 15 16  2  0
 16 17  1  0
 17 18  2  0
  6 19  1  0
 19 20  2  0
 20  3  1  0
 18  9  1  0
 17 12  1  0
  1 21  1  0
  1 22  1  0
  1 23  1  0
  4 24  1  0
  5 25  1  0
  7 26  1  0
  8 27  1  0
 10 28  1  0
 13 29  1  0
 14 30  1  0
 15 31  1  0
 16 32  1  0
 19 33  1  0
 20 34  1  0
M  END
