
     RDKit          3D

 20 21  0  0  0  0  0  0  0  0999 V2000
   -3.4867    0.1597   -0.2077 C   0  0  0  0  0  0  0  0  0  0  0  0
   -2.7993   -1.0351   -0.2266 C   0  0  0  0  0  0  0  0  0  0  0  0
   -1.4069   -1.0461   -0.1050 C   0  0  0  0  0  0  0  0  0  0  0  0
   -0.7409    0.1457    0.0325 C   0  0  0  0  0  0  0  0  0  0  0  0
    0.7054    0.1606    0.1605 C   0  0  0  0  0  0  0  0  0  0  0  0
    1.5117   -0.9467    0.1578 C   0  0  0  0  0  0  0  0  0  0  0  0
    2.8963   -0.8709    0.2845 C   0  0  0  0  0  0  0  0  0  0  0  0
    3.5025    0.3549    0.4190 C   0  0  0  0  0  0  0  0  0  0  0  0
    2.6774    1.4597    0.4198 C   0  0  0  0  0  0  0  0  0  0  0  0
    1.3649    1.3553    0.2976 N   0  0  0  0  0  0  0  0  0  0  0  0
   -1.4642    1.2814    0.0443 N   0  0  0  0  0  0  0  0  0  0  0  0
   -2.7928    1.3364   -0.0687 C   0  0  0  0  0  0  0  0  0  0  0  0
   -4.5801    0.1570   -0.3039 H   0  0  0  0  0  0  0  0  0  0  0  0
   -3.3309   -1.9715   -0.3354 H   0  0  0  0  0  0  0  0  0  0  0  0
   -0.9469   -2.0058   -0.1283 H   0  0  0  0  0  0  0  0  0  0  0  0
    1.0257   -1.9213    0.0505 H   0  0  0  0  0  0  0  0  0  0  0  0
    3.4725   -1.7669    0.2756 H   0  0  0  0  0  0  0  0  0  0  0  0
    4.5904    0.4535    0.5211 H   0  0  0  0  0  0  0  0  0  0  0  0
    3.1515    2.4439    0.5267 H   0  0  0  0  0  0  0  0  0  0  0  0
   -3.3499    2.2562   -0.0567 H   0  0  0  0  0  0  0  0  0  0  0  0
  1  2  2  0
  2  3  1  0
  3  4  2  0
  4  5  1  0
  5  6  2  0
  6  7  1  0
  7  8  2  0
  8  9  1  0
  9 10  2  0
  4 11  1  0
 11 12  2  0
 12  1  1  0
 10  5  1  0
  1 13  1  0
  2 14  1  0
  3 15  1  0
  6 16  1  0
  7 17  1  0
  8 18  1  0
  9 19  1  0
 12 20  1  0
M  END
