
     RDKit          3D

 39 42  0  0  0  0  0  0  0  0999 V2000
    5.5645   -3.1249    1.0822 F   0  0  0  0  0  0  0  0  0  0  0  0
    5.2117   -2.5401   -0.0908 C   0  0  0  0  0  0  0  0  0  0  0  0
    6.2979   -1.8761   -0.6166 F   0  0  0  0  0  0  0  0  0  0  0  0
    4.7997   -3.5516   -0.9784 F   0  0  0  0  0  0  0  0  0  0  0  0
    4.0248   -1.6393    0.0143 C   0  0  0  0  0  0  0  0  0  0  0  0
    2.7970   -2.1133    0.4026 C   0  0  0  0  0  0  0  0  0  0  0  0
    1.6558   -1.3017    0.5061 C   0  0  0  0  0  0  0  0  0  0  0  0
    1.7424    0.0280    0.2134 C   0  0  0  0  0  0  0  0  0  0  0  0
    0.6438    0.9672    0.2388 C   0  0  0  0  0  0  0  0  0  0  0  0
    0.6049    2.3158    0.0703 C   0  0  0  0  0  0  0  0  0  0  0  0
   -0.5893    2.9294    0.1071 C   0  0  0  0  0  0  0  0  0  0  0  0
   -0.8392    4.3135   -0.0583 C   0  0  0  0  0  0  0  0  0  0  0  0
   -2.1132    4.7766   -0.0055 C   0  0  0  0  0  0  0  0  0  0  0  0
   -3.2441    3.9953    0.2047 C   0  0  0  0  0  0  0  0  0  0  0  0
   -2.9953    2.6395    0.3664 C   0  0  0  0  0  0  0  0  0  0  0  0
   -1.6985    2.1718    0.3115 C   0  0  0  0  0  0  0  0  0  0  0  0
   -1.0322    0.5429    0.4541 P   0  0  0  0  0  0  0  0  0  0  0  0
   -1.9379   -0.9866    0.1834 C   0  0  0  0  0  0  0  0  0  0  0  0
   -1.9505   -2.0038    1.0846 C   0  0  0  0  0  0  0  0  0  0  0  0
   -2.6786   -3.1838    0.8464 C   0  0  0  0  0  0  0  0  0  0  0  0
   -3.3989   -3.3128   -0.3308 C   0  0  0  0  0  0  0  0  0  0  0  0
   -3.3897   -2.2821   -1.2465 C   0  0  0  0  0  0  0  0  0  0  0  0
   -2.6565   -1.1348   -0.9732 C   0  0  0  0  0  0  0  0  0  0  0  0
    2.9861    0.5158   -0.1805 C   0  0  0  0  0  0  0  0  0  0  0  0
    4.1135   -0.2916   -0.2823 C   0  0  0  0  0  0  0  0  0  0  0  0
    2.6832   -3.1583    0.6495 H   0  0  0  0  0  0  0  0  0  0  0  0
    0.7246   -1.7006    0.8194 H   0  0  0  0  0  0  0  0  0  0  0  0
    1.5825    2.8416   -0.0890 H   0  0  0  0  0  0  0  0  0  0  0  0
   -0.0578    5.0268   -0.2261 H   0  0  0  0  0  0  0  0  0  0  0  0
   -2.3058    5.8486   -0.1340 H   0  0  0  0  0  0  0  0  0  0  0  0
   -4.2200    4.4478    0.2259 H   0  0  0  0  0  0  0  0  0  0  0  0
   -3.8273    1.9770    0.5305 H   0  0  0  0  0  0  0  0  0  0  0  0
   -1.3919   -1.9454    2.0196 H   0  0  0  0  0  0  0  0  0  0  0  0
   -2.6673   -3.9675    1.5731 H   0  0  0  0  0  0  0  0  0  0  0  0
   -3.9792   -4.2006   -0.5672 H   0  0  0  0  0  0  0  0  0  0  0  0
   -3.9438   -2.3288   -2.1953 H   0  0  0  0  0  0  0  0  0  0  0  0
   -2.6780   -0.3562   -1.7175 H   0  0  0  0  0  0  0  0  0  0  0  0
    3.0785    1.5664   -0.4217 H   0  0  0  0  0  0  0  0  0  0  0  0
    5.0840    0.0958   -0.5910 H   0  0  0  0  0  0  0  0  0  0  0  0
  1  2  1  0
  2  3  1  0
  2  4  1  0
  2  5  1  0
  5  6  2  0
  6  7  1  0
  7  8  2  0
  8  9  1  0
  9 10  2  0
 10 11  1  0
 11 12  2  0
 12 13  1  0
 13 14  2  0
 14 15  1  0
 15 16  2  0
 16 17  1  0
 17 18  1  0
 18 19  2  0
 19 20  1  0
 20 21  2  0
 21 22  1  0
 22 23  2  0
  8 24  1  0
 24 25  2  0
 25  5  1  0
 17  9  1  0
 23 18  1  0
 16 11  1  0
  6 26  1  0
  7 27  1  0
 10 28  1  0
 12 29  1  0
 13 30  1  0
 14 31  1  0
 15 32  1  0
 19 33  1  0
 20 34  1  0
 21 35  1  0
 22 36  1  0
 23 37  1  0
 24 38  1  0
 25 39  1  0
M  END
