
     RDKit          3D

 30 32  0  0  0  0  0  0  0  0999 V2000
    5.3234   -0.9330   -1.1788 O   0  0  0  0  0  0  0  0  0  0  0  0
    5.0102   -0.1670   -0.2056 C   0  0  0  0  0  0  0  0  0  0  0  0
    6.0236    0.4146    0.5111 O   0  0  0  0  0  0  0  0  0  0  0  0
    3.6100    0.0663    0.1137 C   0  0  0  0  0  0  0  0  0  0  0  0
    3.3118    0.8963    1.1675 C   0  0  0  0  0  0  0  0  0  0  0  0
    1.9930    1.1371    1.4947 C   0  0  0  0  0  0  0  0  0  0  0  0
    0.9983    0.5321    0.7479 C   0  0  0  0  0  0  0  0  0  0  0  0
   -0.3367    0.7330    1.0252 C   0  0  0  0  0  0  0  0  0  0  0  0
   -1.3566    0.1474    0.3032 C   0  0  0  0  0  0  0  0  0  0  0  0
   -2.6866    0.3901    0.6332 C   0  0  0  0  0  0  0  0  0  0  0  0
   -3.6716   -0.2161   -0.1153 C   0  0  0  0  0  0  0  0  0  0  0  0
   -5.1009    0.0057    0.1899 C   0  0  0  0  0  0  0  0  0  0  0  0
   -6.0075   -0.5296   -0.4703 O   0  0  0  0  0  0  0  0  0  0  0  0
   -5.4194    0.8408    1.2506 O   0  0  0  0  0  0  0  0  0  0  0  0
   -3.3173   -1.0434   -1.1667 C   0  0  0  0  0  0  0  0  0  0  0  0
   -1.9969   -1.2805   -1.4893 C   0  0  0  0  0  0  0  0  0  0  0  0
   -0.9963   -0.6772   -0.7448 C   0  0  0  0  0  0  0  0  0  0  0  0
    0.3379   -0.9162   -1.0701 C   0  0  0  0  0  0  0  0  0  0  0  0
    1.3118   -0.3015   -0.3107 C   0  0  0  0  0  0  0  0  0  0  0  0
    2.6193   -0.5380   -0.6323 C   0  0  0  0  0  0  0  0  0  0  0  0
    6.9250    0.6457    0.0740 H   0  0  0  0  0  0  0  0  0  0  0  0
    4.0652    1.3771    1.7617 H   0  0  0  0  0  0  0  0  0  0  0  0
    1.6844    1.7681    2.2974 H   0  0  0  0  0  0  0  0  0  0  0  0
   -0.6536    1.3815    1.8499 H   0  0  0  0  0  0  0  0  0  0  0  0
   -2.9417    1.0411    1.4600 H   0  0  0  0  0  0  0  0  0  0  0  0
   -6.2709    1.4232    1.2103 H   0  0  0  0  0  0  0  0  0  0  0  0
   -4.1313   -1.5099   -1.7417 H   0  0  0  0  0  0  0  0  0  0  0  0
   -1.7342   -1.9268   -2.3104 H   0  0  0  0  0  0  0  0  0  0  0  0
    0.5504   -1.5726   -1.9031 H   0  0  0  0  0  0  0  0  0  0  0  0
    2.8573   -1.1886   -1.4584 H   0  0  0  0  0  0  0  0  0  0  0  0
  1  2  2  0
  2  3  1  0
  2  4  1  0
  4  5  2  0
  5  6  1  0
  6  7  2  0
  7  8  1  0
  8  9  2  0
  9 10  1  0
 10 11  2  0
 11 12  1  0
 12 13  2  0
 12 14  1  0
 11 15  1  0
 15 16  2  0
 16 17  1  0
 17 18  2  0
 18 19  1  0
 19 20  2  0
 20  4  1  0
 19  7  1  0
 17  9  1  0
  3 21  1  0
  5 22  1  0
  6 23  1  0
  8 24  1  0
 10 25  1  0
 14 26  1  0
 15 27  1  0
 16 28  1  0
 18 29  1  0
 20 30  1  0
M  END
