
     RDKit          3D

 70 74  0  0  0  0  0  0  0  0999 V2000
   -4.9414    2.3287   -1.0027 C   0  0  0  0  0  0  0  0  0  0  0  0
   -3.4964    2.6170   -1.0676 C   0  0  0  0  0  0  0  0  0  0  0  0
   -2.9284    3.7750   -1.4493 C   0  0  0  0  0  0  0  0  0  0  0  0
   -1.4892    3.6547   -1.3782 C   0  0  0  0  0  0  0  0  0  0  0  0
   -0.4826    4.7224   -1.7192 C   0  0  0  0  0  0  0  0  0  0  0  0
   -1.1622    2.4516   -0.9627 N   0  0  0  0  0  4  0  0  0  0  0  0
   -2.3850    1.7345   -0.7437 C   0  0  0  0  0  0  0  0  0  0  0  0
   -2.3133    0.4853   -0.3018 C   0  0  0  0  0  0  0  0  0  0  0  0
   -3.5911   -0.1904   -0.0737 C   0  0  0  0  0  0  0  0  0  0  0  0
   -4.0268   -1.2290   -0.8631 C   0  0  0  0  0  0  0  0  0  0  0  0
   -5.2316   -1.8250   -0.5287 C   0  0  0  0  0  0  0  0  0  0  0  0
   -6.0132   -1.4438    0.5380 C   0  0  0  0  0  0  0  0  0  0  0  0
   -7.2442   -2.0876    0.8409 N   0  0  0  0  0  0  0  0  0  0  0  0
   -7.7076   -3.1820    0.0220 C   0  0  0  0  0  0  0  0  0  0  0  0
   -8.0345   -1.6475    1.9683 C   0  0  0  0  0  0  0  0  0  0  0  0
   -5.5486   -0.3847    1.3267 C   0  0  0  0  0  0  0  0  0  0  0  0
   -4.3547    0.2298    1.0215 C   0  0  0  0  0  0  0  0  0  0  0  0
   -1.0565   -0.1935   -0.0352 C   0  0  0  0  0  0  0  0  0  0  0  0
   -0.8371   -1.4793    0.4414 C   0  0  0  0  0  0  0  0  0  0  0  0
   -1.8465   -2.4902    0.8061 C   0  0  0  0  0  0  0  0  0  0  0  0
    0.5546   -1.6149    0.5262 C   0  0  0  0  0  0  0  0  0  0  0  0
    1.1176   -0.4465    0.1134 C   0  0  0  0  0  0  0  0  0  0  0  0
    2.5312   -0.1248    0.0322 C   0  0  0  0  0  0  0  0  0  0  0  0
    3.4708   -1.0039    0.3779 C   0  0  0  0  0  0  0  0  0  0  0  0
    4.8933   -0.7606    0.3256 C   0  0  0  0  0  0  0  0  0  0  0  0
    5.4177    0.4292   -0.0961 C   0  0  0  0  0  0  0  0  0  0  0  0
    6.7992    0.6507   -0.1406 C   0  0  0  0  0  0  0  0  0  0  0  0
    7.6691   -0.3331    0.2425 C   0  0  0  0  0  0  0  0  0  0  0  0
    9.0746   -0.1092    0.1988 N   0  0  0  0  0  0  0  0  0  0  0  0
    9.9603   -1.1761    0.6059 C   0  0  0  0  0  0  0  0  0  0  0  0
    9.6532    1.1419   -0.2355 C   0  0  0  0  0  0  0  0  0  0  0  0
    7.1557   -1.5374    0.6697 C   0  0  0  0  0  0  0  0  0  0  0  0
    5.7765   -1.7418    0.7080 C   0  0  0  0  0  0  0  0  0  0  0  0
    0.1169    0.4214   -0.2294 N   0  0  0  0  0  0  0  0  0  0  0  0
    0.2130    1.8498   -0.7408 B   0  0  0  0  0  4  0  0  0  0  0  0
    0.9008    2.7138    0.2276 F   0  0  0  0  0  0  0  0  0  0  0  0
    1.0139    1.8993   -1.9575 F   0  0  0  0  0  0  0  0  0  0  0  0
   -5.2323    1.3428   -1.4170 H   0  0  0  0  0  0  0  0  0  0  0  0
   -5.4086    3.0527   -1.7606 H   0  0  0  0  0  0  0  0  0  0  0  0
   -5.4298    2.6117   -0.0618 H   0  0  0  0  0  0  0  0  0  0  0  0
   -3.5237    4.6304   -1.7524 H   0  0  0  0  0  0  0  0  0  0  0  0
   -0.9731    5.7077   -1.7875 H   0  0  0  0  0  0  0  0  0  0  0  0
    0.3118    4.7693   -0.9416 H   0  0  0  0  0  0  0  0  0  0  0  0
   -0.0321    4.3850   -2.6874 H   0  0  0  0  0  0  0  0  0  0  0  0
   -3.4418   -1.5626   -1.7152 H   0  0  0  0  0  0  0  0  0  0  0  0
   -5.5668   -2.6477   -1.1627 H   0  0  0  0  0  0  0  0  0  0  0  0
   -8.4670   -3.8067    0.5529 H   0  0  0  0  0  0  0  0  0  0  0  0
   -6.9016   -3.8887   -0.2648 H   0  0  0  0  0  0  0  0  0  0  0  0
   -8.1918   -2.7822   -0.8972 H   0  0  0  0  0  0  0  0  0  0  0  0
   -8.3712   -0.5894    1.8449 H   0  0  0  0  0  0  0  0  0  0  0  0
   -7.3818   -1.7017    2.8755 H   0  0  0  0  0  0  0  0  0  0  0  0
   -8.8914   -2.3244    2.1618 H   0  0  0  0  0  0  0  0  0  0  0  0
   -6.1632   -0.0873    2.1625 H   0  0  0  0  0  0  0  0  0  0  0  0
   -3.9932    1.0489    1.6311 H   0  0  0  0  0  0  0  0  0  0  0  0
   -2.1526   -3.1625   -0.0043 H   0  0  0  0  0  0  0  0  0  0  0  0
   -2.6682   -2.1069    1.4465 H   0  0  0  0  0  0  0  0  0  0  0  0
   -1.2922   -3.1920    1.5243 H   0  0  0  0  0  0  0  0  0  0  0  0
    1.0353   -2.5343    0.8745 H   0  0  0  0  0  0  0  0  0  0  0  0
    2.8758    0.8555   -0.3176 H   0  0  0  0  0  0  0  0  0  0  0  0
    3.0819   -1.9819    0.7260 H   0  0  0  0  0  0  0  0  0  0  0  0
    4.8147    1.2618   -0.4163 H   0  0  0  0  0  0  0  0  0  0  0  0
    7.1883    1.6112   -0.4822 H   0  0  0  0  0  0  0  0  0  0  0  0
   11.0214   -0.9405    0.4281 H   0  0  0  0  0  0  0  0  0  0  0  0
    9.7242   -2.0476   -0.0520 H   0  0  0  0  0  0  0  0  0  0  0  0
    9.7636   -1.4390    1.6802 H   0  0  0  0  0  0  0  0  0  0  0  0
    9.5721    1.2797   -1.3367 H   0  0  0  0  0  0  0  0  0  0  0  0
    9.0602    1.9777    0.2391 H   0  0  0  0  0  0  0  0  0  0  0  0
   10.7088    1.1967    0.0713 H   0  0  0  0  0  0  0  0  0  0  0  0
    7.8488   -2.3273    0.9773 H   0  0  0  0  0  0  0  0  0  0  0  0
    5.4479   -2.7122    1.0546 H   0  0  0  0  0  0  0  0  0  0  0  0
  1  2  1  0
  2  3  2  0
  3  4  1  0
  4  5  1  0
  4  6  2  0
  6  7  1  0
  7  8  2  0
  8  9  1  0
  9 10  2  0
 10 11  1  0
 11 12  2  0
 12 13  1  0
 13 14  1  0
 13 15  1  0
 12 16  1  0
 16 17  2  0
  8 18  1  0
 18 19  2  0
 19 20  1  0
 19 21  1  0
 21 22  2  0
 22 23  1  0
 23 24  2  0
 24 25  1  0
 25 26  2  0
 26 27  1  0
 27 28  2  0
 28 29  1  0
 29 30  1  0
 29 31  1  0
 28 32  1  0
 32 33  2  0
 22 34  1  0
 34 35  1  0
 35 36  1  0
 35 37  1  0
  7  2  1  0
 17  9  1  0
 34 18  1  0
 35  6  1  0
 33 25  1  0
  1 38  1  0
  1 39  1  0
  1 40  1  0
  3 41  1  0
  5 42  1  0
  5 43  1  0
  5 44  1  0
 10 45  1  0
 11 46  1  0
 14 47  1  0
 14 48  1  0
 14 49  1  0
 15 50  1  0
 15 51  1  0
 15 52  1  0
 16 53  1  0
 17 54  1  0
 20 55  1  0
 20 56  1  0
 20 57  1  0
 21 58  1  0
 23 59  1  0
 24 60  1  0
 26 61  1  0
 27 62  1  0
 30 63  1  0
 30 64  1  0
 30 65  1  0
 31 66  1  0
 31 67  1  0
 31 68  1  0
 32 69  1  0
 33 70  1  0
M  CHG  2   6   1  35  -1
M  END
