
     RDKit          3D

 37 39  0  0  0  0  0  0  0  0999 V2000
   -2.2363    0.2084    0.1342 C   0  0  0  0  0  0  0  0  0  0  0  0
   -3.2499    0.0697   -0.6810 C   0  0  0  0  0  0  0  0  0  0  0  0
   -4.6276    0.0356   -0.2379 C   0  0  0  0  0  0  0  0  0  0  0  0
   -4.9906    0.1467    1.0865 C   0  0  0  0  0  0  0  0  0  0  0  0
   -6.3548    0.1005    1.4008 C   0  0  0  0  0  0  0  0  0  0  0  0
   -7.2862   -0.0523    0.3958 C   0  0  0  0  0  0  0  0  0  0  0  0
   -6.9079   -0.1596   -0.8987 N   0  0  0  0  0  0  0  0  0  0  0  0
   -5.6162   -0.1185   -1.2227 C   0  0  0  0  0  0  0  0  0  0  0  0
   -0.8370    0.2458   -0.2883 C   0  0  0  0  0  0  0  0  0  0  0  0
   -0.4791    0.1351   -1.6052 C   0  0  0  0  0  0  0  0  0  0  0  0
    0.8637    0.1766   -1.9490 C   0  0  0  0  0  0  0  0  0  0  0  0
    1.8545    0.3286   -0.9815 C   0  0  0  0  0  0  0  0  0  0  0  0
    3.2162    0.4032   -1.3588 N   0  0  0  0  0  0  0  0  0  0  0  0
    4.2205   -0.0232   -0.4594 C   0  0  0  0  0  0  0  0  0  0  0  0
    4.0228   -0.9686    0.5204 C   0  0  0  0  0  0  0  0  0  0  0  0
    5.0331   -1.3270    1.3903 C   0  0  0  0  0  0  0  0  0  0  0  0
    6.2495   -0.7257    1.2667 C   0  0  0  0  0  0  0  0  0  0  0  0
    6.4471    0.2193    0.2858 C   0  0  0  0  0  0  0  0  0  0  0  0
    5.4635    0.5936   -0.5892 C   0  0  0  0  0  0  0  0  0  0  0  0
    1.4915    0.4403    0.3375 C   0  0  0  0  0  0  0  0  0  0  0  0
    0.1383    0.3957    0.6611 C   0  0  0  0  0  0  0  0  0  0  0  0
   -2.4729    0.3007    1.1965 H   0  0  0  0  0  0  0  0  0  0  0  0
   -3.0348   -0.0228   -1.7339 H   0  0  0  0  0  0  0  0  0  0  0  0
   -4.2794    0.2658    1.8778 H   0  0  0  0  0  0  0  0  0  0  0  0
   -6.6159    0.1894    2.4440 H   0  0  0  0  0  0  0  0  0  0  0  0
   -8.3442   -0.0908    0.6129 H   0  0  0  0  0  0  0  0  0  0  0  0
   -5.3429   -0.2069   -2.2678 H   0  0  0  0  0  0  0  0  0  0  0  0
   -1.1827    0.0159   -2.4045 H   0  0  0  0  0  0  0  0  0  0  0  0
    1.1665    0.0913   -2.9787 H   0  0  0  0  0  0  0  0  0  0  0  0
    3.4960    0.7761   -2.3144 H   0  0  0  0  0  0  0  0  0  0  0  0
    3.0712   -1.4871    0.6388 H   0  0  0  0  0  0  0  0  0  0  0  0
    4.9162   -2.0653    2.1737 H   0  0  0  0  0  0  0  0  0  0  0  0
    7.0786   -0.9683    1.9221 H   0  0  0  0  0  0  0  0  0  0  0  0
    7.4089    0.6805    0.2037 H   0  0  0  0  0  0  0  0  0  0  0  0
    5.6276    1.3323   -1.3515 H   0  0  0  0  0  0  0  0  0  0  0  0
    2.2174    0.5807    1.1226 H   0  0  0  0  0  0  0  0  0  0  0  0
   -0.1246    0.4839    1.6969 H   0  0  0  0  0  0  0  0  0  0  0  0
  1  2  2  0
  2  3  1  0
  3  4  2  0
  4  5  1  0
  5  6  2  0
  6  7  1  0
  7  8  2  0
  1  9  1  0
  9 10  2  0
 10 11  1  0
 11 12  2  0
 12 13  1  0
 13 14  1  0
 14 15  2  0
 15 16  1  0
 16 17  2  0
 17 18  1  0
 18 19  2  0
 12 20  1  0
 20 21  2  0
  8  3  1  0
 21  9  1  0
 19 14  1  0
  1 22  1  0
  2 23  1  0
  4 24  1  0
  5 25  1  0
  6 26  1  0
  8 27  1  0
 10 28  1  0
 11 29  1  0
 13 30  1  0
 15 31  1  0
 16 32  1  0
 17 33  1  0
 18 34  1  0
 19 35  1  0
 20 36  1  0
 21 37  1  0
M  END
