
     RDKit          3D

 65 69  0  0  0  0  0  0  0  0999 V2000
    8.2047   -2.5090    0.1157 O   0  0  0  0  0  0  0  0  0  0  0  0
    7.0684   -2.7640    0.5561 N   0  0  0  0  0  4  0  0  0  0  0  0
    6.9717   -3.8942    1.3474 O   0  0  0  0  0  1  0  0  0  0  0  0
    5.9484   -1.9426    0.2587 C   0  0  0  0  0  0  0  0  0  0  0  0
    4.7027   -2.2475    0.7338 C   0  0  0  0  0  0  0  0  0  0  0  0
    3.6513   -1.4318    0.3887 C   0  0  0  0  0  0  0  0  0  0  0  0
    3.7690   -0.2990   -0.4282 C   0  0  0  0  0  0  0  0  0  0  0  0
    2.6944    0.4656   -0.8920 N   0  0  0  0  0  0  0  0  0  0  0  0
    1.4292    0.7947   -0.3625 C   0  0  0  0  0  0  0  0  0  0  0  0
    0.5350   -0.1422    0.2880 C   0  0  0  0  0  0  0  0  0  0  0  0
   -0.7699    0.5492    0.7836 N   0  0  0  0  0  0  0  0  0  0  0  0
   -1.6826   -0.3767    1.4205 C   0  0  0  0  0  0  0  0  0  0  0  0
   -2.5600   -1.0739    0.5111 C   0  0  0  0  0  0  0  0  0  0  0  0
   -2.5317   -2.4884    0.4825 C   0  0  0  0  0  0  0  0  0  0  0  0
   -1.6728   -3.1743    1.2904 C   0  0  0  0  0  0  0  0  0  0  0  0
   -1.6577   -4.5730    1.2683 C   0  0  0  0  0  0  0  0  0  0  0  0
   -2.5165   -5.2051    0.4214 C   0  0  0  0  0  0  0  0  0  0  0  0
   -3.3804   -4.5357   -0.3922 C   0  0  0  0  0  0  0  0  0  0  0  0
   -3.4022   -3.1457   -0.3747 C   0  0  0  0  0  0  0  0  0  0  0  0
   -4.2778   -2.4560   -1.1828 C   0  0  0  0  0  0  0  0  0  0  0  0
   -4.2952   -1.0877   -1.1310 C   0  0  0  0  0  0  0  0  0  0  0  0
   -5.2844   -0.4258   -1.8652 C   0  0  0  0  0  0  0  0  0  0  0  0
   -5.4607    0.9440   -1.7720 C   0  0  0  0  0  0  0  0  0  0  0  0
   -4.6176    1.6357   -0.9127 C   0  0  0  0  0  0  0  0  0  0  0  0
   -3.6335    0.9657   -0.1857 C   0  0  0  0  0  0  0  0  0  0  0  0
   -3.4457   -0.3948   -0.2855 C   0  0  0  0  0  0  0  0  0  0  0  0
   -0.6906    1.9029    0.5390 C   0  0  0  0  0  0  0  0  0  0  0  0
   -0.8908    2.4621   -0.7213 C   0  0  0  0  0  0  0  0  0  0  0  0
   -0.7239    3.7684   -0.9942 C   0  0  0  0  0  0  0  0  0  0  0  0
   -0.3337    4.6415    0.0075 C   0  0  0  0  0  0  0  0  0  0  0  0
   -0.1448    6.0029   -0.2603 N   0  0  0  0  0  4  0  0  0  0  0  0
    0.1879    6.7916    0.6098 O   0  0  0  0  0  0  0  0  0  0  0  0
   -0.3383    6.4777   -1.5315 O   0  0  0  0  0  1  0  0  0  0  0  0
   -0.1299    4.1130    1.2660 C   0  0  0  0  0  0  0  0  0  0  0  0
   -0.2984    2.7735    1.5566 C   0  0  0  0  0  0  0  0  0  0  0  0
   -0.1140    2.3835    2.9112 N   0  0  0  0  0  4  0  0  0  0  0  0
   -0.3594    3.2370    3.8080 O   0  0  0  0  0  0  0  0  0  0  0  0
    0.2942    1.1416    3.3102 O   0  0  0  0  0  1  0  0  0  0  0  0
    5.0546   -0.0319   -0.8765 C   0  0  0  0  0  0  0  0  0  0  0  0
    5.3678    1.1023   -1.6285 N   0  0  0  0  0  4  0  0  0  0  0  0
    4.6968    1.6247   -2.4834 O   0  0  0  0  0  0  0  0  0  0  0  0
    6.6145    1.7051   -1.4108 O   0  0  0  0  0  1  0  0  0  0  0  0
    6.1396   -0.8463   -0.5418 C   0  0  0  0  0  0  0  0  0  0  0  0
    4.5833   -3.1209    1.3564 H   0  0  0  0  0  0  0  0  0  0  0  0
    2.6608   -1.6615    0.7566 H   0  0  0  0  0  0  0  0  0  0  0  0
    2.8827    0.8593   -1.9177 H   0  0  0  0  0  0  0  0  0  0  0  0
    1.4523    1.7729    0.2198 H   0  0  0  0  0  0  0  0  0  0  0  0
    0.8407    1.1569   -1.3217 H   0  0  0  0  0  0  0  0  0  0  0  0
    0.9033   -0.4963    1.2920 H   0  0  0  0  0  0  0  0  0  0  0  0
    0.2034   -1.0487   -0.2557 H   0  0  0  0  0  0  0  0  0  0  0  0
   -2.2934    0.2087    2.2070 H   0  0  0  0  0  0  0  0  0  0  0  0
   -1.0270   -0.9811    2.0728 H   0  0  0  0  0  0  0  0  0  0  0  0
   -0.9821   -2.7009    1.9631 H   0  0  0  0  0  0  0  0  0  0  0  0
   -0.9475   -5.0543    1.9256 H   0  0  0  0  0  0  0  0  0  0  0  0
   -2.5083   -6.2827    0.3707 H   0  0  0  0  0  0  0  0  0  0  0  0
   -4.0856   -4.9876   -1.0966 H   0  0  0  0  0  0  0  0  0  0  0  0
   -4.9296   -2.9993   -1.8274 H   0  0  0  0  0  0  0  0  0  0  0  0
   -5.9431   -0.9827   -2.5349 H   0  0  0  0  0  0  0  0  0  0  0  0
   -6.2461    1.4319   -2.3601 H   0  0  0  0  0  0  0  0  0  0  0  0
   -4.7863    2.6946   -0.8633 H   0  0  0  0  0  0  0  0  0  0  0  0
   -3.1056    1.5537    0.5096 H   0  0  0  0  0  0  0  0  0  0  0  0
   -1.2362    1.7975   -1.5186 H   0  0  0  0  0  0  0  0  0  0  0  0
   -0.8576    4.1737   -1.9893 H   0  0  0  0  0  0  0  0  0  0  0  0
    0.1696    4.8110    2.0701 H   0  0  0  0  0  0  0  0  0  0  0  0
    7.1346   -0.5812   -0.9426 H   0  0  0  0  0  0  0  0  0  0  0  0
  1  2  2  0
  2  3  1  0
  2  4  1  0
  4  5  2  0
  5  6  1  0
  6  7  2  0
  7  8  1  0
  8  9  1  0
  9 10  1  0
 10 11  1  0
 11 12  1  0
 12 13  1  0
 13 14  1  0
 14 15  2  0
 15 16  1  0
 16 17  2  0
 17 18  1  0
 18 19  2  0
 19 20  1  0
 20 21  2  0
 21 22  1  0
 22 23  2  0
 23 24  1  0
 24 25  2  0
 25 26  1  0
 11 27  1  0
 27 28  2  0
 28 29  1  0
 29 30  2  0
 30 31  1  0
 31 32  2  0
 31 33  1  0
 30 34  1  0
 34 35  2  0
 35 36  1  0
 36 37  2  0
 36 38  1  0
  7 39  1  0
 39 40  1  0
 40 41  2  0
 40 42  1  0
 39 43  2  0
 43  4  1  0
 26 13  2  0
 35 27  1  0
 19 14  1  0
 26 21  1  0
  5 44  1  0
  6 45  1  0
  8 46  1  0
  9 47  1  0
  9 48  1  0
 10 49  1  0
 10 50  1  0
 12 51  1  0
 12 52  1  0
 15 53  1  0
 16 54  1  0
 17 55  1  0
 18 56  1  0
 20 57  1  0
 22 58  1  0
 23 59  1  0
 24 60  1  0
 25 61  1  0
 28 62  1  0
 29 63  1  0
 34 64  1  0
 43 65  1  0
M  CHG  8   2   1   3  -1  31   1  33  -1  36   1  38  -1  40   1  42  -1
M  END
