
     RDKit          3D

 31 32  0  0  0  0  0  0  0  0999 V2000
    6.0122    0.4217   -0.4804 C   0  0  0  0  0  0  0  0  0  0  0  0
    4.5726    0.1045   -0.3401 C   0  0  0  0  0  0  0  0  0  0  0  0
    3.6065    1.0619   -0.2262 C   0  0  0  0  0  0  0  0  0  0  0  0
    2.2670    0.7004   -0.0968 C   0  0  0  0  0  0  0  0  0  0  0  0
    1.2900    1.6593    0.0182 O   0  0  0  0  0  0  0  0  0  0  0  0
    1.9224   -0.6188   -0.0841 C   0  0  0  0  0  0  0  0  0  0  0  0
    0.6036   -1.1597    0.0402 C   0  0  0  0  0  0  0  0  0  0  0  0
    0.4581   -2.4322    0.0335 O   0  0  0  0  0  0  0  0  0  0  0  0
   -0.6408   -0.4053    0.1787 C   0  0  0  0  0  0  0  0  0  0  0  0
   -1.8136   -1.0009    0.2873 C   0  0  0  0  0  0  0  0  0  0  0  0
   -3.0922   -0.3648    0.4273 C   0  0  0  0  0  0  0  0  0  0  0  0
   -4.2008   -1.2281    0.5250 C   0  0  0  0  0  0  0  0  0  0  0  0
   -5.4883   -0.8014    0.6624 C   0  0  0  0  0  0  0  0  0  0  0  0
   -5.7022    0.5638    0.7069 C   0  0  0  0  0  0  0  0  0  0  0  0
   -4.6308    1.4229    0.6130 C   0  0  0  0  0  0  0  0  0  0  0  0
   -3.3066    0.9694    0.4714 C   0  0  0  0  0  0  0  0  0  0  0  0
   -2.0824    2.2041    0.3683 Cl  0  0  0  0  0  0  0  0  0  0  0  0
    2.9723   -1.5329   -0.2057 C   0  0  0  0  0  0  0  0  0  0  0  0
    2.7478   -2.7798   -0.2040 O   0  0  0  0  0  0  0  0  0  0  0  0
    4.1959   -1.1407   -0.3229 O   0  0  0  0  0  0  0  0  0  0  0  0
    6.1783    0.6430   -1.5733 H   0  0  0  0  0  0  0  0  0  0  0  0
    6.3023    1.3072    0.1226 H   0  0  0  0  0  0  0  0  0  0  0  0
    6.6424   -0.4420   -0.1833 H   0  0  0  0  0  0  0  0  0  0  0  0
    3.8464    2.0994   -0.2330 H   0  0  0  0  0  0  0  0  0  0  0  0
    1.5365    2.6339    0.0096 H   0  0  0  0  0  0  0  0  0  0  0  0
   -0.5546    0.6550    0.1878 H   0  0  0  0  0  0  0  0  0  0  0  0
   -1.7392   -2.1032    0.2613 H   0  0  0  0  0  0  0  0  0  0  0  0
   -4.0442   -2.3108    0.4910 H   0  0  0  0  0  0  0  0  0  0  0  0
   -6.3102   -1.5024    0.7338 H   0  0  0  0  0  0  0  0  0  0  0  0
   -6.7231    0.9010    0.8159 H   0  0  0  0  0  0  0  0  0  0  0  0
   -4.8251    2.4754    0.6503 H   0  0  0  0  0  0  0  0  0  0  0  0
  1  2  1  0
  2  3  2  0
  3  4  1  0
  4  5  1  0
  4  6  2  0
  6  7  1  0
  7  8  2  0
  7  9  1  0
  9 10  2  0
 10 11  1  0
 11 12  2  0
 12 13  1  0
 13 14  2  0
 14 15  1  0
 15 16  2  0
 16 17  1  0
  6 18  1  0
 18 19  2  0
 18 20  1  0
 20  2  1  0
 16 11  1  0
  1 21  1  0
  1 22  1  0
  1 23  1  0
  3 24  1  0
  5 25  1  0
  9 26  1  0
 10 27  1  0
 12 28  1  0
 13 29  1  0
 14 30  1  0
 15 31  1  0
M  END
