
     RDKit          3D

 48 52  0  0  0  0  0  0  0  0999 V2000
   -5.2596    0.1501   -2.9962 C   0  0  0  0  0  0  0  0  0  0  0  0
   -3.9124    0.2978   -2.3839 C   0  0  0  0  0  0  0  0  0  0  0  0
   -3.7076    0.8474   -1.1348 C   0  0  0  0  0  0  0  0  0  0  0  0
   -2.4531    0.9624   -0.6260 C   0  0  0  0  0  0  0  0  0  0  0  0
   -1.3189    0.5469   -1.3053 C   0  0  0  0  0  0  0  0  0  0  0  0
   -1.5030   -0.0048   -2.5560 C   0  0  0  0  0  0  0  0  0  0  0  0
   -2.7724   -0.1233   -3.0762 C   0  0  0  0  0  0  0  0  0  0  0  0
   -0.2660   -0.3159   -2.9822 N   0  0  0  0  0  0  0  0  0  0  0  0
    0.6127    0.0153   -2.0743 N   0  0  0  0  0  0  0  0  0  0  0  0
   -0.0002    0.5491   -1.0301 N   0  0  0  0  0  0  0  0  0  0  0  0
    0.5399    1.0502    0.1655 C   0  0  0  0  0  0  0  0  0  0  0  0
    0.3820    2.3961    0.5407 C   0  0  0  0  0  0  0  0  0  0  0  0
   -0.3177    3.3908   -0.1591 C   0  0  0  0  0  0  0  0  0  0  0  0
   -0.9114    4.2680   -0.7582 N   0  0  0  0  0  0  0  0  0  0  0  0
    1.0415    2.4938    1.7532 C   0  0  0  0  0  0  0  0  0  0  0  0
    1.2320    3.5570    2.6273 C   0  0  0  0  0  0  0  0  0  0  0  0
    0.7041    4.8364    2.3166 N   0  0  0  0  0  0  0  0  0  0  0  0
    1.9213    3.3119    3.7478 N   0  0  0  0  0  0  0  0  0  0  0  0
    2.4239    2.1128    4.0563 C   0  0  0  0  0  0  0  0  0  0  0  0
    2.2332    1.1022    3.2075 N   0  0  0  0  0  0  0  0  0  0  0  0
    1.5467    1.2578    2.0463 C   0  0  0  0  0  0  0  0  0  0  0  0
    1.2289    0.3697    1.0539 N   0  0  0  0  0  0  0  0  0  0  0  0
    1.6295   -0.9756    1.1197 C   0  0  1  0  0  0  0  0  0  0  0  0
    0.6930   -2.0454    1.3973 C   0  0  0  0  0  0  0  0  0  0  0  0
    1.1103   -3.1718    0.4795 C   0  0  2  0  0  0  0  0  0  0  0  0
    1.1911   -4.4018    1.1322 O   0  0  0  0  0  0  0  0  0  0  0  0
    2.4570   -2.6789    0.0203 C   0  0  1  0  0  0  0  0  0  0  0  0
    2.9517   -3.3366   -1.2228 C   0  0  0  0  0  0  0  0  0  0  0  0
    2.0618   -3.2517   -2.2750 O   0  0  0  0  0  0  0  0  0  0  0  0
    2.2167   -1.3038   -0.1419 O   0  0  0  0  0  0  0  0  0  0  0  0
   -5.6080    1.1647   -3.3026 H   0  0  0  0  0  0  0  0  0  0  0  0
   -5.9304   -0.2707   -2.2214 H   0  0  0  0  0  0  0  0  0  0  0  0
   -5.1531   -0.5182   -3.8898 H   0  0  0  0  0  0  0  0  0  0  0  0
   -4.5642    1.1933   -0.5548 H   0  0  0  0  0  0  0  0  0  0  0  0
   -2.3084    1.4013    0.3675 H   0  0  0  0  0  0  0  0  0  0  0  0
   -2.9159   -0.5554   -4.0551 H   0  0  0  0  0  0  0  0  0  0  0  0
    1.2118    5.7129    2.6537 H   0  0  0  0  0  0  0  0  0  0  0  0
   -0.1703    5.0047    1.7756 H   0  0  0  0  0  0  0  0  0  0  0  0
    2.9836    1.9618    5.0001 H   0  0  0  0  0  0  0  0  0  0  0  0
    2.5267   -1.1190    1.8134 H   0  0  0  0  0  0  0  0  0  0  0  0
   -0.3825   -1.8259    1.3429 H   0  0  0  0  0  0  0  0  0  0  0  0
    0.8413   -2.4523    2.4443 H   0  0  0  0  0  0  0  0  0  0  0  0
    0.3880   -3.2464   -0.3844 H   0  0  0  0  0  0  0  0  0  0  0  0
    1.8344   -4.4060    1.8575 H   0  0  0  0  0  0  0  0  0  0  0  0
    3.1610   -2.7521    0.8608 H   0  0  0  0  0  0  0  0  0  0  0  0
    3.9588   -2.9391   -1.5302 H   0  0  0  0  0  0  0  0  0  0  0  0
    3.1086   -4.4135   -0.9925 H   0  0  0  0  0  0  0  0  0  0  0  0
    1.2636   -3.8461   -2.1271 H   0  0  0  0  0  0  0  0  0  0  0  0
  1  2  1  0
  2  3  2  0
  3  4  1  0
  4  5  2  0
  5  6  1  0
  6  7  2  0
  6  8  1  0
  8  9  2  0
  9 10  1  0
 10 11  1  0
 11 12  2  0
 12 13  1  0
 13 14  3  0
 12 15  1  0
 15 16  2  0
 16 17  1  0
 16 18  1  0
 18 19  2  0
 19 20  1  0
 20 21  2  0
 21 22  1  0
 22 23  1  0
 23 24  1  0
 24 25  1  0
 25 26  1  0
 25 27  1  0
 27 28  1  0
 28 29  1  0
 27 30  1  0
  7  2  1  0
 22 11  1  0
 30 23  1  0
 10  5  1  0
 21 15  1  0
  1 31  1  0
  1 32  1  0
  1 33  1  0
  3 34  1  0
  4 35  1  0
  7 36  1  0
 17 37  1  0
 17 38  1  0
 19 39  1  0
 23 40  1  1
 24 41  1  0
 24 42  1  0
 25 43  1  6
 26 44  1  0
 27 45  1  1
 28 46  1  0
 28 47  1  0
 29 48  1  0
M  END
