
     RDKit          3D

 69 70  0  0  0  0  0  0  0  0999 V2000
   -8.5220    0.5465    0.5554 C   0  0  0  0  0  0  0  0  0  0  0  0
   -7.2641    1.1551   -0.0302 C   0  0  0  0  0  0  0  0  0  0  0  0
   -6.1958    0.0897   -0.0754 C   0  0  0  0  0  0  0  0  0  0  0  0
   -6.6376   -1.0695   -0.9439 C   0  0  0  0  0  0  0  0  0  0  0  0
   -5.6047   -2.1458   -0.9948 C   0  0  0  0  0  0  0  0  0  0  0  0
   -4.3122   -1.6586   -1.5549 C   0  0  0  0  0  0  0  0  0  0  0  0
   -3.2287   -2.7421   -1.5443 C   0  0  0  0  0  0  0  0  0  0  0  0
   -3.0452   -3.2252   -0.1097 C   0  0  0  0  0  0  0  0  0  0  0  0
   -2.6919   -2.1357    0.8274 C   0  0  0  0  0  0  0  0  0  0  0  0
   -1.3944   -1.4382    0.6110 C   0  0  0  0  0  0  0  0  0  0  0  0
   -0.1732   -2.3318    0.7732 C   0  0  0  0  0  0  0  0  0  0  0  0
    1.0469   -1.4935    0.6874 C   0  0  0  0  0  0  0  0  0  0  0  0
    1.3337   -0.8497   -0.5200 O   0  0  0  0  0  0  0  0  0  0  0  0
    2.4166    0.0498   -0.5660 C   0  0  0  0  0  0  0  0  0  0  0  0
    3.1463    0.2967    0.6022 C   0  0  0  0  0  0  0  0  0  0  0  0
    4.2038    1.1794    0.6069 C   0  0  0  0  0  0  0  0  0  0  0  0
    4.8936    1.4130    1.7688 C   0  0  0  0  0  0  0  0  0  0  0  0
    5.9508    2.3065    1.8314 C   0  0  0  0  0  0  0  0  0  0  0  0
    6.6631    2.5443    3.0343 N   0  0  0  0  0  0  0  0  0  0  0  0
    7.8160    3.4577    2.9707 C   0  0  0  0  0  0  0  0  0  0  0  0
    6.3070    1.9473    4.3122 C   0  0  0  0  0  0  0  0  0  0  0  0
    6.2895    2.9546    0.6767 C   0  0  0  0  0  0  0  0  0  0  0  0
    5.6247    2.7443   -0.5052 C   0  0  0  0  0  0  0  0  0  0  0  0
    4.5676    1.8463   -0.5480 C   0  0  0  0  0  0  0  0  0  0  0  0
    3.8314    1.5902   -1.7117 C   0  0  0  0  0  0  0  0  0  0  0  0
    2.7633    0.6870   -1.6946 C   0  0  0  0  0  0  0  0  0  0  0  0
    2.0365    0.4148   -2.9578 C   0  0  0  0  0  0  0  0  0  0  0  0
    2.7706    0.1538   -4.0173 C   0  0  0  0  0  0  0  0  0  0  0  0
    4.2381    0.1292   -3.9508 C   0  0  0  0  0  0  0  0  0  0  0  0
    5.3884    0.1032   -3.9066 N   0  0  0  0  0  0  0  0  0  0  0  0
    2.2419   -0.1477   -5.3115 C   0  0  0  0  0  0  0  0  0  0  0  0
    1.8075   -0.4044   -6.3407 N   0  0  0  0  0  0  0  0  0  0  0  0
   -9.0334   -0.1025   -0.2140 H   0  0  0  0  0  0  0  0  0  0  0  0
   -9.1973    1.3514    0.8363 H   0  0  0  0  0  0  0  0  0  0  0  0
   -8.2266   -0.1187    1.3984 H   0  0  0  0  0  0  0  0  0  0  0  0
   -7.4423    1.5775   -1.0184 H   0  0  0  0  0  0  0  0  0  0  0  0
   -6.9515    1.9447    0.7106 H   0  0  0  0  0  0  0  0  0  0  0  0
   -5.2339    0.5345   -0.4236 H   0  0  0  0  0  0  0  0  0  0  0  0
   -5.9790   -0.2400    0.9725 H   0  0  0  0  0  0  0  0  0  0  0  0
   -7.5666   -1.4944   -0.4605 H   0  0  0  0  0  0  0  0  0  0  0  0
   -6.8994   -0.7112   -1.9505 H   0  0  0  0  0  0  0  0  0  0  0  0
   -5.9771   -2.9488   -1.6799 H   0  0  0  0  0  0  0  0  0  0  0  0
   -5.4966   -2.5716    0.0383 H   0  0  0  0  0  0  0  0  0  0  0  0
   -4.4918   -1.4353   -2.6398 H   0  0  0  0  0  0  0  0  0  0  0  0
   -3.8953   -0.7546   -1.1293 H   0  0  0  0  0  0  0  0  0  0  0  0
   -2.3050   -2.2769   -1.9164 H   0  0  0  0  0  0  0  0  0  0  0  0
   -3.5461   -3.5354   -2.2342 H   0  0  0  0  0  0  0  0  0  0  0  0
   -3.9090   -3.7979    0.2314 H   0  0  0  0  0  0  0  0  0  0  0  0
   -2.1749   -3.9319   -0.1388 H   0  0  0  0  0  0  0  0  0  0  0  0
   -2.8298   -2.4250    1.9045 H   0  0  0  0  0  0  0  0  0  0  0  0
   -3.4866   -1.3253    0.6936 H   0  0  0  0  0  0  0  0  0  0  0  0
   -1.4060   -1.1312   -0.4854 H   0  0  0  0  0  0  0  0  0  0  0  0
   -1.2866   -0.5908    1.2878 H   0  0  0  0  0  0  0  0  0  0  0  0
   -0.2174   -2.9383    1.6812 H   0  0  0  0  0  0  0  0  0  0  0  0
   -0.1787   -3.0570   -0.0799 H   0  0  0  0  0  0  0  0  0  0  0  0
    0.9004   -0.6449    1.4423 H   0  0  0  0  0  0  0  0  0  0  0  0
    1.9432   -2.0237    1.1065 H   0  0  0  0  0  0  0  0  0  0  0  0
    2.8662   -0.2158    1.5135 H   0  0  0  0  0  0  0  0  0  0  0  0
    4.5907    0.8727    2.6324 H   0  0  0  0  0  0  0  0  0  0  0  0
    7.4393    4.4784    2.8073 H   0  0  0  0  0  0  0  0  0  0  0  0
    8.4454    3.3675    3.8845 H   0  0  0  0  0  0  0  0  0  0  0  0
    8.4117    3.1509    2.0945 H   0  0  0  0  0  0  0  0  0  0  0  0
    6.4566    2.7737    5.0617 H   0  0  0  0  0  0  0  0  0  0  0  0
    7.0143    1.1499    4.6231 H   0  0  0  0  0  0  0  0  0  0  0  0
    5.2858    1.5861    4.3573 H   0  0  0  0  0  0  0  0  0  0  0  0
    7.1080    3.6752    0.6754 H   0  0  0  0  0  0  0  0  0  0  0  0
    5.9058    3.2704   -1.4110 H   0  0  0  0  0  0  0  0  0  0  0  0
    4.1124    2.1281   -2.5897 H   0  0  0  0  0  0  0  0  0  0  0  0
    0.9839    0.4431   -2.9401 H   0  0  0  0  0  0  0  0  0  0  0  0
  1  2  1  0
  2  3  1  0
  3  4  1  0
  4  5  1  0
  5  6  1  0
  6  7  1  0
  7  8  1  0
  8  9  1  0
  9 10  1  0
 10 11  1  0
 11 12  1  0
 12 13  1  0
 13 14  1  0
 14 15  2  0
 15 16  1  0
 16 17  2  0
 17 18  1  0
 18 19  1  0
 19 20  1  0
 19 21  1  0
 18 22  2  0
 22 23  1  0
 23 24  2  0
 24 25  1  0
 25 26  2  0
 26 27  1  0
 27 28  2  3
 28 29  1  0
 29 30  3  0
 28 31  1  0
 31 32  3  0
 26 14  1  0
 24 16  1  0
  1 33  1  0
  1 34  1  0
  1 35  1  0
  2 36  1  0
  2 37  1  0
  3 38  1  0
  3 39  1  0
  4 40  1  0
  4 41  1  0
  5 42  1  0
  5 43  1  0
  6 44  1  0
  6 45  1  0
  7 46  1  0
  7 47  1  0
  8 48  1  0
  8 49  1  0
  9 50  1  0
  9 51  1  0
 10 52  1  0
 10 53  1  0
 11 54  1  0
 11 55  1  0
 12 56  1  0
 12 57  1  0
 15 58  1  0
 17 59  1  0
 20 60  1  0
 20 61  1  0
 20 62  1  0
 21 63  1  0
 21 64  1  0
 21 65  1  0
 22 66  1  0
 23 67  1  0
 25 68  1  0
 27 69  1  0
M  END
