
     RDKit          3D

 81 88  0  0  0  0  0  0  0  0999 V2000
   -0.7122    8.6689   -2.0056 C   0  0  0  0  0  0  0  0  0  0  0  0
   -1.0332    7.9239   -0.7358 C   0  0  0  0  0  0  0  0  0  0  0  0
    0.0789    7.1781   -0.2194 N   0  0  0  0  0  0  0  0  0  0  0  0
    1.2253    7.8706    0.3075 C   0  0  0  0  0  0  0  0  0  0  0  0
    2.3278    6.9945    0.8017 C   0  0  0  0  0  0  0  0  0  0  0  0
    0.0493    5.7670   -0.2213 C   0  0  0  0  0  0  0  0  0  0  0  0
    0.7097    4.9636   -1.1199 C   0  0  0  0  0  0  0  0  0  0  0  0
    0.6343    3.5751   -1.0925 C   0  0  0  0  0  0  0  0  0  0  0  0
   -0.1228    2.9541   -0.1409 C   0  0  0  0  0  0  0  0  0  0  0  0
   -0.2041    1.4975   -0.0782 C   0  0  0  0  0  0  0  0  0  0  0  0
   -0.9957    0.8775    0.8160 N   0  0  0  0  0  0  0  0  0  0  0  0
   -1.0445   -0.4486    0.8785 C   0  0  0  0  0  0  0  0  0  0  0  0
   -1.8504   -1.0672    1.7941 O   0  0  0  0  0  0  0  0  0  0  0  0
   -3.1121   -1.5624    1.5981 C   0  0  0  0  0  0  0  0  0  0  0  0
   -4.2838   -0.8997    1.8011 C   0  0  0  0  0  0  0  0  0  0  0  0
   -5.5236   -1.4743    1.5850 C   0  0  0  0  0  0  0  0  0  0  0  0
   -5.6229   -2.7571    1.1494 C   0  0  0  0  0  0  0  0  0  0  0  0
   -6.8904   -3.4547    0.9228 C   0  0  0  0  0  0  0  0  0  0  0  0
   -7.0390   -4.7409    0.5118 N   0  0  0  0  0  0  0  0  0  0  0  0
   -8.3228   -5.0803    0.4166 C   0  0  0  0  0  0  0  0  0  0  0  0
   -8.9947   -6.2280    0.0608 C   0  0  0  0  0  0  0  0  0  0  0  0
  -10.3766   -6.2575    0.0722 C   0  0  0  0  0  0  0  0  0  0  0  0
  -11.1115   -5.1604    0.4327 C   0  0  0  0  0  0  0  0  0  0  0  0
  -10.4248   -4.0036    0.7908 C   0  0  0  0  0  0  0  0  0  0  0  0
   -9.0413   -3.9405    0.7904 C   0  0  0  0  0  0  0  0  0  0  0  0
   -8.1321   -2.9849    1.0863 N   0  0  0  0  0  0  0  0  0  0  0  0
   -4.4276   -3.4513    0.9337 C   0  0  0  0  0  0  0  0  0  0  0  0
   -3.2133   -2.8863    1.1466 C   0  0  0  0  0  0  0  0  0  0  0  0
   -0.2843   -1.2005    0.0258 N   0  0  0  0  0  0  0  0  0  0  0  0
    0.5251   -0.5991   -0.8883 C   0  0  0  0  0  0  0  0  0  0  0  0
    1.2864   -1.3653   -1.7431 O   0  0  0  0  0  0  0  0  0  0  0  0
    2.6116   -1.7294   -1.4574 C   0  0  0  0  0  0  0  0  0  0  0  0
    3.3270   -2.4982   -2.3603 C   0  0  0  0  0  0  0  0  0  0  0  0
    4.6393   -2.9018   -2.1499 C   0  0  0  0  0  0  0  0  0  0  0  0
    5.2762   -2.5207   -0.9757 C   0  0  0  0  0  0  0  0  0  0  0  0
    6.6625   -2.9320   -0.7187 C   0  0  0  0  0  0  0  0  0  0  0  0
    7.4693   -3.6388   -1.5346 N   0  0  0  0  0  0  0  0  0  0  0  0
    8.6767   -3.8256   -0.9764 C   0  0  0  0  0  0  0  0  0  0  0  0
    9.8556   -4.4504   -1.3381 C   0  0  0  0  0  0  0  0  0  0  0  0
   10.9541   -4.4676   -0.5200 C   0  0  0  0  0  0  0  0  0  0  0  0
   10.9310   -3.8551    0.7128 C   0  0  0  0  0  0  0  0  0  0  0  0
    9.7618   -3.2318    1.0776 C   0  0  0  0  0  0  0  0  0  0  0  0
    8.6494   -3.2069    0.2641 C   0  0  0  0  0  0  0  0  0  0  0  0
    7.4109   -2.6837    0.3682 N   0  0  0  0  0  0  0  0  0  0  0  0
    4.5642   -1.7582   -0.0852 C   0  0  0  0  0  0  0  0  0  0  0  0
    3.2579   -1.3585   -0.3008 C   0  0  0  0  0  0  0  0  0  0  0  0
    0.5309    0.7426   -0.9018 N   0  0  0  0  0  0  0  0  0  0  0  0
   -0.8106    3.7419    0.7904 C   0  0  0  0  0  0  0  0  0  0  0  0
   -0.7251    5.1136    0.7495 C   0  0  0  0  0  0  0  0  0  0  0  0
   -0.2488    9.6414   -1.6955 H   0  0  0  0  0  0  0  0  0  0  0  0
   -1.6566    8.9542   -2.5209 H   0  0  0  0  0  0  0  0  0  0  0  0
   -0.0600    8.0560   -2.6269 H   0  0  0  0  0  0  0  0  0  0  0  0
   -1.8845    7.2105   -0.9468 H   0  0  0  0  0  0  0  0  0  0  0  0
   -1.3837    8.6085    0.0753 H   0  0  0  0  0  0  0  0  0  0  0  0
    1.6807    8.5489   -0.4553 H   0  0  0  0  0  0  0  0  0  0  0  0
    0.8207    8.5491    1.1104 H   0  0  0  0  0  0  0  0  0  0  0  0
    3.3430    7.4319    0.6120 H   0  0  0  0  0  0  0  0  0  0  0  0
    2.2557    6.9576    1.9233 H   0  0  0  0  0  0  0  0  0  0  0  0
    2.3387    5.9742    0.3755 H   0  0  0  0  0  0  0  0  0  0  0  0
    1.3204    5.4122   -1.8907 H   0  0  0  0  0  0  0  0  0  0  0  0
    1.1739    2.9814   -1.8203 H   0  0  0  0  0  0  0  0  0  0  0  0
   -4.2410    0.1250    2.1466 H   0  0  0  0  0  0  0  0  0  0  0  0
   -6.4449   -0.9146    1.7598 H   0  0  0  0  0  0  0  0  0  0  0  0
   -8.4631   -7.1119   -0.2296 H   0  0  0  0  0  0  0  0  0  0  0  0
  -10.8959   -7.1770   -0.2128 H   0  0  0  0  0  0  0  0  0  0  0  0
  -12.1851   -5.1649    0.4496 H   0  0  0  0  0  0  0  0  0  0  0  0
  -11.0029   -3.1498    1.0739 H   0  0  0  0  0  0  0  0  0  0  0  0
   -8.3804   -2.0242    1.3950 H   0  0  0  0  0  0  0  0  0  0  0  0
   -4.4738   -4.4668    0.5845 H   0  0  0  0  0  0  0  0  0  0  0  0
   -2.3130   -3.4419    0.9715 H   0  0  0  0  0  0  0  0  0  0  0  0
    2.8305   -2.7997   -3.2792 H   0  0  0  0  0  0  0  0  0  0  0  0
    5.2059   -3.4989   -2.8382 H   0  0  0  0  0  0  0  0  0  0  0  0
    9.8880   -4.9336   -2.3047 H   0  0  0  0  0  0  0  0  0  0  0  0
   11.8927   -4.9645   -0.8106 H   0  0  0  0  0  0  0  0  0  0  0  0
   11.8247   -3.8833    1.3469 H   0  0  0  0  0  0  0  0  0  0  0  0
    9.7371   -2.7495    2.0435 H   0  0  0  0  0  0  0  0  0  0  0  0
    7.0716   -2.1490    1.1949 H   0  0  0  0  0  0  0  0  0  0  0  0
    5.0728   -1.4562    0.8451 H   0  0  0  0  0  0  0  0  0  0  0  0
    2.7157   -0.7535    0.4144 H   0  0  0  0  0  0  0  0  0  0  0  0
   -1.4028    3.2090    1.5268 H   0  0  0  0  0  0  0  0  0  0  0  0
   -1.2513    5.7314    1.4619 H   0  0  0  0  0  0  0  0  0  0  0  0
  1  2  1  0
  2  3  1  0
  3  4  1  0
  4  5  1  0
  3  6  1  0
  6  7  2  0
  7  8  1  0
  8  9  2  0
  9 10  1  0
 10 11  2  0
 11 12  1  0
 12 13  1  0
 13 14  1  0
 14 15  2  0
 15 16  1  0
 16 17  2  0
 17 18  1  0
 18 19  2  0
 19 20  1  0
 20 21  2  0
 21 22  1  0
 22 23  2  0
 23 24  1  0
 24 25  2  0
 25 26  1  0
 17 27  1  0
 27 28  2  0
 12 29  2  0
 29 30  1  0
 30 31  1  0
 31 32  1  0
 32 33  2  0
 33 34  1  0
 34 35  2  0
 35 36  1  0
 36 37  2  0
 37 38  1  0
 38 39  2  0
 39 40  1  0
 40 41  2  0
 41 42  1  0
 42 43  2  0
 43 44  1  0
 35 45  1  0
 45 46  2  0
 30 47  2  0
  9 48  1  0
 48 49  2  0
 49  6  1  0
 47 10  1  0
 28 14  1  0
 46 32  1  0
 26 18  1  0
 44 36  1  0
 25 20  1  0
 43 38  1  0
  1 50  1  0
  1 51  1  0
  1 52  1  0
  2 53  1  0
  2 54  1  0
  4 55  1  0
  4 56  1  0
  5 57  1  0
  5 58  1  0
  5 59  1  0
  7 60  1  0
  8 61  1  0
 15 62  1  0
 16 63  1  0
 21 64  1  0
 22 65  1  0
 23 66  1  0
 24 67  1  0
 26 68  1  0
 27 69  1  0
 28 70  1  0
 33 71  1  0
 34 72  1  0
 39 73  1  0
 40 74  1  0
 41 75  1  0
 42 76  1  0
 44 77  1  0
 45 78  1  0
 46 79  1  0
 48 80  1  0
 49 81  1  0
M  END
