
     RDKit          3D

 30 33  0  0  0  0  0  0  0  0999 V2000
    4.8898   -0.4453    0.1189 N   0  0  0  0  0  0  0  0  0  0  0  0
    3.4927   -0.1979    0.1002 C   0  0  0  0  0  0  0  0  0  0  0  0
    2.6312   -1.2349   -0.0670 C   0  0  0  0  0  0  0  0  0  0  0  0
    1.2397   -0.9924   -0.0862 C   0  0  0  0  0  0  0  0  0  0  0  0
    0.8001    0.2692    0.0629 C   0  0  0  0  0  0  0  0  0  0  0  0
    1.6852    1.3349    0.2348 C   0  0  0  0  0  0  0  0  0  0  0  0
    3.0430    1.0837    0.2516 C   0  0  0  0  0  0  0  0  0  0  0  0
    1.2836    2.5702    0.3818 O   0  0  0  0  0  0  0  0  0  0  0  0
    0.0470    2.9039    0.3802 C   0  0  0  0  0  0  0  0  0  0  0  0
   -0.3367    4.1194    0.5253 O   0  0  0  0  0  0  0  0  0  0  0  0
   -0.9182    1.9470    0.2196 C   0  0  0  0  0  0  0  0  0  0  0  0
   -2.2427    2.3147    0.2192 C   0  0  0  0  0  0  0  0  0  0  0  0
   -2.5589    3.5463    0.3689 O   0  0  0  0  0  0  0  0  0  0  0  0
   -3.1322    1.3999    0.0669 O   0  0  0  0  0  0  0  0  0  0  0  0
   -2.8414    0.1325   -0.0884 C   0  0  0  0  0  0  0  0  0  0  0  0
   -3.9229   -0.7164   -0.2392 C   0  0  0  0  0  0  0  0  0  0  0  0
   -3.6490   -2.0488   -0.4035 C   0  0  0  0  0  0  0  0  0  0  0  0
   -2.3690   -2.5247   -0.4189 C   0  0  0  0  0  0  0  0  0  0  0  0
   -1.2782   -1.6533   -0.2649 C   0  0  0  0  0  0  0  0  0  0  0  0
   -1.5182   -0.3427   -0.1021 C   0  0  0  0  0  0  0  0  0  0  0  0
   -0.5411    0.6051    0.0578 C   0  0  0  0  0  0  0  0  0  0  0  0
    5.2567   -1.1574    0.7858 H   0  0  0  0  0  0  0  0  0  0  0  0
    5.5748    0.0364   -0.4887 H   0  0  0  0  0  0  0  0  0  0  0  0
    2.9927   -2.2306   -0.1842 H   0  0  0  0  0  0  0  0  0  0  0  0
    0.6788   -1.8542   -0.2196 H   0  0  0  0  0  0  0  0  0  0  0  0
    3.7217    1.9340    0.3877 H   0  0  0  0  0  0  0  0  0  0  0  0
   -4.9485   -0.3603   -0.2302 H   0  0  0  0  0  0  0  0  0  0  0  0
   -4.5040   -2.7008   -0.5202 H   0  0  0  0  0  0  0  0  0  0  0  0
   -2.1961   -3.5772   -0.5503 H   0  0  0  0  0  0  0  0  0  0  0  0
   -0.3800   -2.1602   -0.2982 H   0  0  0  0  0  0  0  0  0  0  0  0
  1  2  1  0
  2  3  2  0
  3  4  1  0
  4  5  2  0
  5  6  1  0
  6  7  2  0
  6  8  1  0
  8  9  1  0
  9 10  2  0
  9 11  1  0
 11 12  1  0
 12 13  2  0
 12 14  1  0
 14 15  1  0
 15 16  2  0
 16 17  1  0
 17 18  2  0
 18 19  1  0
 19 20  2  0
 20 21  1  0
  7  2  1  0
 21 11  2  0
 21  5  1  0
 20 15  1  0
  1 22  1  0
  1 23  1  0
  3 24  1  0
  4 25  1  0
  7 26  1  0
 16 27  1  0
 17 28  1  0
 18 29  1  0
 19 30  1  0
M  END
