
     RDKit          3D

 46 52  0  0  0  0  0  0  0  0999 V2000
    3.0737    1.3044    1.5191 O   0  0  0  0  0  0  0  0  0  0  0  0
    2.9120    0.1851    0.8797 C   0  0  0  0  0  0  0  0  0  0  0  0
    1.6588   -0.4510    0.7213 C   0  0  0  0  0  0  0  0  0  0  0  0
    0.3692   -0.2925    0.6099 C   0  0  0  0  0  0  0  0  0  0  0  0
   -0.5113   -1.4097    0.5495 C   0  0  0  0  0  0  0  0  0  0  0  0
   -0.1599   -2.5919    0.6649 O   0  0  0  0  0  0  0  0  0  0  0  0
   -1.7784   -0.9606    0.3606 C   0  0  0  0  0  0  0  0  0  0  0  0
   -2.9992   -1.5909    0.2508 C   0  0  0  0  0  0  0  0  0  0  0  0
   -3.0130   -2.9598    0.3271 C   0  0  0  0  0  0  0  0  0  0  0  0
   -4.2308   -3.5914    0.2226 C   0  0  0  0  0  0  0  0  0  0  0  0
   -5.3707   -2.8559    0.0492 C   0  0  0  0  0  0  0  0  0  0  0  0
   -5.3607   -1.4875   -0.0276 C   0  0  0  0  0  0  0  0  0  0  0  0
   -4.1506   -0.8307    0.0747 C   0  0  0  0  0  0  0  0  0  0  0  0
   -4.0794    0.5432    0.0082 C   0  0  0  0  0  0  0  0  0  0  0  0
   -2.8512    1.1593    0.1191 C   0  0  0  0  0  0  0  0  0  0  0  0
   -2.6820    2.5187    0.0294 C   0  0  0  0  0  0  0  0  0  0  0  0
   -1.3818    3.0156    0.1278 C   0  0  0  0  0  0  0  0  0  0  0  0
   -1.2399    4.3654   -0.0909 C   0  0  0  0  0  0  0  0  0  0  0  0
    0.0351    4.8769   -0.1215 C   0  0  0  0  0  0  0  0  0  0  0  0
    1.1374    4.0727    0.0572 C   0  0  0  0  0  0  0  0  0  0  0  0
    0.9670    2.7163    0.2788 C   0  0  0  0  0  0  0  0  0  0  0  0
   -0.2921    2.1968    0.3222 C   0  0  0  0  0  0  0  0  0  0  0  0
   -0.4170    0.8274    0.4356 C   0  0  0  0  0  0  0  0  0  0  0  0
   -1.7580    0.3836    0.2912 C   0  0  0  0  0  0  0  0  0  0  0  0
    2.1953   -1.7171   -0.0588 C   0  0  0  0  0  0  0  0  0  0  0  0
    1.5695   -2.6823   -0.4934 O   0  0  0  0  0  0  0  0  0  0  0  0
    3.6226   -1.6121   -0.2297 C   0  0  0  0  0  0  0  0  0  0  0  0
    4.5559   -2.4531   -0.8456 C   0  0  0  0  0  0  0  0  0  0  0  0
    5.8916   -2.1512   -0.8962 C   0  0  0  0  0  0  0  0  0  0  0  0
    6.3118   -0.9802   -0.3184 C   0  0  0  0  0  0  0  0  0  0  0  0
    5.4148   -0.1403    0.2911 C   0  0  0  0  0  0  0  0  0  0  0  0
    4.0690   -0.4533    0.3374 C   0  0  0  0  0  0  0  0  0  0  0  0
   -2.1498   -3.5752    0.4617 H   0  0  0  0  0  0  0  0  0  0  0  0
   -4.2783   -4.6739    0.2788 H   0  0  0  0  0  0  0  0  0  0  0  0
   -6.3046   -3.4018   -0.0274 H   0  0  0  0  0  0  0  0  0  0  0  0
   -6.2926   -0.9477   -0.1659 H   0  0  0  0  0  0  0  0  0  0  0  0
   -4.9607    1.1156   -0.1268 H   0  0  0  0  0  0  0  0  0  0  0  0
   -3.5383    3.1466   -0.1109 H   0  0  0  0  0  0  0  0  0  0  0  0
   -2.0894    5.0103   -0.2351 H   0  0  0  0  0  0  0  0  0  0  0  0
    0.1682    5.9288   -0.2895 H   0  0  0  0  0  0  0  0  0  0  0  0
    2.1544    4.4774    0.0293 H   0  0  0  0  0  0  0  0  0  0  0  0
    1.8338    2.1396    0.2987 H   0  0  0  0  0  0  0  0  0  0  0  0
    4.2240   -3.3635   -1.2940 H   0  0  0  0  0  0  0  0  0  0  0  0
    6.5981   -2.8276   -1.3844 H   0  0  0  0  0  0  0  0  0  0  0  0
    7.3668   -0.7507   -0.3635 H   0  0  0  0  0  0  0  0  0  0  0  0
    5.7608    0.7683    0.7355 H   0  0  0  0  0  0  0  0  0  0  0  0
  1  2  2  0
  2  3  1  0
  3  4  2  3
  4  5  1  0
  5  6  2  0
  5  7  1  0
  7  8  2  0
  8  9  1  0
  9 10  2  0
 10 11  1  0
 11 12  2  0
 12 13  1  0
 13 14  2  0
 14 15  1  0
 15 16  1  0
 16 17  2  0
 17 18  1  0
 18 19  2  0
 19 20  1  0
 20 21  2  0
 21 22  1  0
 22 23  2  0
 23 24  1  0
  3 25  1  0
 25 26  2  0
 25 27  1  0
 27 28  2  0
 28 29  1  0
 29 30  2  0
 30 31  1  0
 31 32  2  0
 32  2  1  0
 23  4  1  0
 32 27  1  0
 24  7  1  0
 13  8  1  0
 24 15  2  0
 22 17  1  0
  9 33  1  0
 10 34  1  0
 11 35  1  0
 12 36  1  0
 14 37  1  0
 16 38  1  0
 18 39  1  0
 19 40  1  0
 20 41  1  0
 21 42  1  0
 28 43  1  0
 29 44  1  0
 30 45  1  0
 31 46  1  0
M  END
