
     RDKit          3D

 44 49  0  0  0  0  0  0  0  0999 V2000
    3.8736    0.4374   -3.4605 O   0  0  0  0  0  0  0  0  0  0  0  0
    3.6829    0.1715   -2.2288 C   0  0  0  0  0  0  0  0  0  0  0  0
    4.6468   -0.1207   -1.4164 O   0  0  0  0  0  0  0  0  0  0  0  0
    4.4788   -0.3969   -0.1504 C   0  0  0  0  0  0  0  0  0  0  0  0
    5.5593   -0.7000    0.6550 C   0  0  0  0  0  0  0  0  0  0  0  0
    5.4135   -0.9943    1.9885 C   0  0  0  0  0  0  0  0  0  0  0  0
    4.1435   -0.9788    2.5076 C   0  0  0  0  0  0  0  0  0  0  0  0
    3.0214   -0.6814    1.7456 C   0  0  0  0  0  0  0  0  0  0  0  0
    3.2007   -0.3935    0.4246 C   0  0  0  0  0  0  0  0  0  0  0  0
    2.1124   -0.0885   -0.3859 C   0  0  0  0  0  0  0  0  0  0  0  0
    0.8349   -0.0652    0.1037 C   0  0  0  0  0  0  0  0  0  0  0  0
   -0.2124    0.2408   -0.7304 C   0  0  0  0  0  0  0  0  0  0  0  0
   -1.5823    0.2579   -0.2717 N   0  0  0  0  0  0  0  0  0  0  0  0
   -2.3666    1.4471   -0.3702 C   0  0  0  0  0  0  0  0  0  0  0  0
   -1.8387    2.5942   -0.8787 C   0  0  0  0  0  0  0  0  0  0  0  0
   -2.6041    3.7420   -0.9701 C   0  0  0  0  0  0  0  0  0  0  0  0
   -3.9091    3.6892   -0.5332 C   0  0  0  0  0  0  0  0  0  0  0  0
   -4.4448    2.5228   -0.0161 C   0  0  0  0  0  0  0  0  0  0  0  0
   -3.6802    1.3759    0.0753 C   0  0  0  0  0  0  0  0  0  0  0  0
   -4.2123    0.2098    0.5923 O   0  0  0  0  0  0  0  0  0  0  0  0
   -3.4868   -0.9660    0.7056 C   0  0  0  0  0  0  0  0  0  0  0  0
   -4.0501   -2.1188    1.2274 C   0  0  0  0  0  0  0  0  0  0  0  0
   -3.3325   -3.2878    1.3389 C   0  0  0  0  0  0  0  0  0  0  0  0
   -2.0249   -3.2751    0.9112 C   0  0  0  0  0  0  0  0  0  0  0  0
   -1.4591   -2.1085    0.3849 C   0  0  0  0  0  0  0  0  0  0  0  0
   -2.1658   -0.9294    0.2679 C   0  0  0  0  0  0  0  0  0  0  0  0
    0.0407    0.5241   -2.0658 C   0  0  0  0  0  0  0  0  0  0  0  0
    1.3277    0.4983   -2.5482 C   0  0  0  0  0  0  0  0  0  0  0  0
    2.4025    0.1900   -1.7177 C   0  0  0  0  0  0  0  0  0  0  0  0
    6.5420   -0.7043    0.2203 H   0  0  0  0  0  0  0  0  0  0  0  0
    6.2935   -1.2214    2.5594 H   0  0  0  0  0  0  0  0  0  0  0  0
    4.0394   -1.2137    3.5660 H   0  0  0  0  0  0  0  0  0  0  0  0
    2.0700   -0.6864    2.2058 H   0  0  0  0  0  0  0  0  0  0  0  0
    0.5998   -0.2736    1.1277 H   0  0  0  0  0  0  0  0  0  0  0  0
   -0.8032    2.6203   -1.2147 H   0  0  0  0  0  0  0  0  0  0  0  0
   -2.1746    4.6605   -1.3797 H   0  0  0  0  0  0  0  0  0  0  0  0
   -4.5007    4.6065   -0.6129 H   0  0  0  0  0  0  0  0  0  0  0  0
   -5.4770    2.5320    0.3146 H   0  0  0  0  0  0  0  0  0  0  0  0
   -5.0787   -2.1010    1.5555 H   0  0  0  0  0  0  0  0  0  0  0  0
   -3.7808   -4.1803    1.7470 H   0  0  0  0  0  0  0  0  0  0  0  0
   -1.4519   -4.1895    0.9942 H   0  0  0  0  0  0  0  0  0  0  0  0
   -0.4250   -2.1247    0.0454 H   0  0  0  0  0  0  0  0  0  0  0  0
   -0.7952    0.7678   -2.7329 H   0  0  0  0  0  0  0  0  0  0  0  0
    1.5732    0.7119   -3.5801 H   0  0  0  0  0  0  0  0  0  0  0  0
  1  2  2  0
  2  3  1  0
  3  4  1  0
  4  5  2  0
  5  6  1  0
  6  7  2  0
  7  8  1  0
  8  9  2  0
  9 10  1  0
 10 11  2  0
 11 12  1  0
 12 13  1  0
 13 14  1  0
 14 15  2  0
 15 16  1  0
 16 17  2  0
 17 18  1  0
 18 19  2  0
 19 20  1  0
 20 21  1  0
 21 22  2  0
 22 23  1  0
 23 24  2  0
 24 25  1  0
 25 26  2  0
 12 27  2  0
 27 28  1  0
 28 29  2  0
 29  2  1  0
  9  4  1  0
 29 10  1  0
 26 13  1  0
 19 14  1  0
 26 21  1  0
  5 30  1  0
  6 31  1  0
  7 32  1  0
  8 33  1  0
 11 34  1  0
 15 35  1  0
 16 36  1  0
 17 37  1  0
 18 38  1  0
 22 39  1  0
 23 40  1  0
 24 41  1  0
 25 42  1  0
 27 43  1  0
 28 44  1  0
M  END
