
     RDKit          3D

 45 48  0  0  0  0  0  0  0  0999 V2000
   -4.9351   -1.9862   -2.7913 C   0  0  0  0  0  0  0  0  0  0  0  0
   -5.2409   -1.0063   -1.8176 O   0  0  0  0  0  0  0  0  0  0  0  0
   -4.2133   -0.3911   -1.0995 C   0  0  0  0  0  0  0  0  0  0  0  0
   -2.8779   -0.7184   -1.3168 C   0  0  0  0  0  0  0  0  0  0  0  0
   -1.8826   -0.0957   -0.5939 C   0  0  0  0  0  0  0  0  0  0  0  0
   -0.4737   -0.4543   -0.8365 C   0  0  0  0  0  0  0  0  0  0  0  0
   -0.0267   -1.3828   -1.7452 C   0  0  0  0  0  0  0  0  0  0  0  0
    1.3196   -1.3799   -1.6243 N   0  0  0  0  0  0  0  0  0  0  0  0
    1.6746   -0.4922   -0.6871 C   0  0  0  0  0  0  0  0  0  0  0  0
    3.0388   -0.1590   -0.2275 C   0  0  0  0  0  0  0  0  0  0  0  0
    3.2517    0.7849    0.7547 C   0  0  0  0  0  0  0  0  0  0  0  0
    4.4857    1.1075    1.1920 N   0  0  0  0  0  0  0  0  0  0  0  0
    5.5868    0.5254    0.6944 C   0  0  0  0  0  0  0  0  0  0  0  0
    6.8379    0.8732    1.1590 C   0  0  0  0  0  0  0  0  0  0  0  0
    7.9312    0.2361    0.6044 C   0  0  0  0  0  0  0  0  0  0  0  0
    7.8061   -0.7206   -0.3831 C   0  0  0  0  0  0  0  0  0  0  0  0
    6.5307   -1.0265   -0.8071 C   0  0  0  0  0  0  0  0  0  0  0  0
    5.4063   -0.4238   -0.2904 C   0  0  0  0  0  0  0  0  0  0  0  0
    4.1519   -0.7752   -0.7590 C   0  0  0  0  0  0  0  0  0  0  0  0
    0.5854    0.0387   -0.2406 O   0  0  0  0  0  0  0  0  0  0  0  0
   -2.1787    0.8618    0.3577 C   0  0  0  0  0  0  0  0  0  0  0  0
   -3.5115    1.1738    0.5596 C   0  0  0  0  0  0  0  0  0  0  0  0
   -3.8691    2.1240    1.4984 O   0  0  0  0  0  0  0  0  0  0  0  0
   -2.8511    2.7613    2.2382 C   0  0  0  0  0  0  0  0  0  0  0  0
   -4.5244    0.5623   -0.1534 C   0  0  0  0  0  0  0  0  0  0  0  0
   -5.8372    0.9272    0.1043 O   0  0  0  0  0  0  0  0  0  0  0  0
   -6.5209    0.1874    1.1128 C   0  0  0  0  0  0  0  0  0  0  0  0
   -5.8700   -2.4082   -3.1800 H   0  0  0  0  0  0  0  0  0  0  0  0
   -4.3411   -1.5237   -3.6259 H   0  0  0  0  0  0  0  0  0  0  0  0
   -4.3398   -2.7755   -2.2849 H   0  0  0  0  0  0  0  0  0  0  0  0
   -2.6493   -1.4778   -2.0721 H   0  0  0  0  0  0  0  0  0  0  0  0
   -0.6167   -1.9996   -2.4265 H   0  0  0  0  0  0  0  0  0  0  0  0
    2.3547    1.2614    1.1625 H   0  0  0  0  0  0  0  0  0  0  0  0
    6.9663    1.6332    1.9460 H   0  0  0  0  0  0  0  0  0  0  0  0
    8.9280    0.5157    0.9772 H   0  0  0  0  0  0  0  0  0  0  0  0
    8.6852   -1.2212   -0.8171 H   0  0  0  0  0  0  0  0  0  0  0  0
    6.4093   -1.7720   -1.5787 H   0  0  0  0  0  0  0  0  0  0  0  0
    4.0158   -1.5165   -1.5276 H   0  0  0  0  0  0  0  0  0  0  0  0
   -1.3875    1.3424    0.9177 H   0  0  0  0  0  0  0  0  0  0  0  0
   -2.4834    2.0241    2.9844 H   0  0  0  0  0  0  0  0  0  0  0  0
   -2.0371    3.1515    1.6059 H   0  0  0  0  0  0  0  0  0  0  0  0
   -3.2656    3.6583    2.7814 H   0  0  0  0  0  0  0  0  0  0  0  0
   -5.8772    0.1057    2.0232 H   0  0  0  0  0  0  0  0  0  0  0  0
   -6.7135   -0.8560    0.7655 H   0  0  0  0  0  0  0  0  0  0  0  0
   -7.4417    0.7066    1.4034 H   0  0  0  0  0  0  0  0  0  0  0  0
  1  2  1  0
  2  3  1  0
  3  4  2  0
  4  5  1  0
  5  6  1  0
  6  7  2  0
  7  8  1  0
  8  9  2  0
  9 10  1  0
 10 11  2  0
 11 12  1  0
 12 13  2  0
 13 14  1  0
 14 15  2  0
 15 16  1  0
 16 17  2  0
 17 18  1  0
 18 19  2  0
  9 20  1  0
  5 21  2  0
 21 22  1  0
 22 23  1  0
 23 24  1  0
 22 25  2  0
 25 26  1  0
 26 27  1  0
 25  3  1  0
 20  6  1  0
 19 10  1  0
 18 13  1  0
  1 28  1  0
  1 29  1  0
  1 30  1  0
  4 31  1  0
  7 32  1  0
 11 33  1  0
 14 34  1  0
 15 35  1  0
 16 36  1  0
 17 37  1  0
 19 38  1  0
 21 39  1  0
 24 40  1  0
 24 41  1  0
 24 42  1  0
 27 43  1  0
 27 44  1  0
 27 45  1  0
M  END
