
     RDKit          3D

 76 82  0  0  0  0  0  0  0  0999 V2000
   -5.9206    4.4886   -1.7112 C   0  0  0  0  0  0  0  0  0  0  0  0
   -5.0306    3.3675   -1.2629 C   0  0  0  0  0  0  0  0  0  0  0  0
   -5.0933    2.1311   -1.8606 C   0  0  0  0  0  0  0  0  0  0  0  0
   -4.2731    1.0762   -1.4569 C   0  0  0  0  0  0  0  0  0  0  0  0
   -4.3102   -0.2480   -2.0685 C   0  0  0  0  0  0  0  0  0  0  0  0
   -3.3877    1.3087   -0.4308 C   0  0  0  0  0  0  0  0  0  0  0  0
   -2.4474    0.1722    0.0593 B   0  0  0  0  0  0  0  0  0  0  0  0
   -0.8811    0.4250    0.0948 C   0  0  0  0  0  0  0  0  0  0  0  0
   -0.2657    1.2891   -0.7790 C   0  0  0  0  0  0  0  0  0  0  0  0
    1.0963    1.5161   -0.7559 C   0  0  0  0  0  0  0  0  0  0  0  0
    1.9064    0.8711    0.1631 C   0  0  0  0  0  0  0  0  0  0  0  0
    3.3338    1.1560    0.1844 C   0  0  0  0  0  0  0  0  0  0  0  0
    3.7782    2.4774    0.3574 C   0  0  0  0  0  0  0  0  0  0  0  0
    5.1209    2.7426    0.4140 C   0  0  0  0  0  0  0  0  0  0  0  0
    6.0309    1.7368    0.3041 C   0  0  0  0  0  0  0  0  0  0  0  0
    7.3805    1.9905    0.3594 C   0  0  0  0  0  0  0  0  0  0  0  0
    8.2871    0.9767    0.2470 C   0  0  0  0  0  0  0  0  0  0  0  0
    7.8621   -0.3410    0.0731 C   0  0  0  0  0  0  0  0  0  0  0  0
    8.7840   -1.3570   -0.0443 C   0  0  0  0  0  0  0  0  0  0  0  0
    8.3457   -2.6410   -0.2193 C   0  0  0  0  0  0  0  0  0  0  0  0
    7.0081   -2.9222   -0.2780 C   0  0  0  0  0  0  0  0  0  0  0  0
    6.1036   -1.8881   -0.1577 C   0  0  0  0  0  0  0  0  0  0  0  0
    4.7639   -2.2020   -0.2236 C   0  0  0  0  0  0  0  0  0  0  0  0
    3.8530   -1.1720   -0.1065 C   0  0  0  0  0  0  0  0  0  0  0  0
    4.2307    0.1386    0.0716 C   0  0  0  0  0  0  0  0  0  0  0  0
    5.5817    0.4366    0.1329 C   0  0  0  0  0  0  0  0  0  0  0  0
    6.5071   -0.5902    0.0186 C   0  0  0  0  0  0  0  0  0  0  0  0
    1.3096    0.0063    1.0426 C   0  0  0  0  0  0  0  0  0  0  0  0
   -0.0619   -0.2073    1.0020 C   0  0  0  0  0  0  0  0  0  0  0  0
   -3.0416   -1.2061    0.4436 C   0  0  0  0  0  0  0  0  0  0  0  0
   -2.5501   -2.3707   -0.1125 C   0  0  0  0  0  0  0  0  0  0  0  0
   -1.4495   -2.2396   -1.0671 C   0  0  0  0  0  0  0  0  0  0  0  0
   -3.0918   -3.6140    0.2405 C   0  0  0  0  0  0  0  0  0  0  0  0
   -4.1248   -3.7031    1.1488 C   0  0  0  0  0  0  0  0  0  0  0  0
   -4.6793   -5.0355    1.5057 C   0  0  0  0  0  0  0  0  0  0  0  0
   -4.5965   -2.5284    1.6893 C   0  0  0  0  0  0  0  0  0  0  0  0
   -4.0656   -1.2817    1.3461 C   0  0  0  0  0  0  0  0  0  0  0  0
   -4.5952   -0.0875    1.9488 C   0  0  0  0  0  0  0  0  0  0  0  0
   -3.2977    2.5362    0.1911 C   0  0  0  0  0  0  0  0  0  0  0  0
   -2.3104    2.6893    1.2761 C   0  0  0  0  0  0  0  0  0  0  0  0
   -4.1234    3.5614   -0.2308 C   0  0  0  0  0  0  0  0  0  0  0  0
   -6.4571    4.9166   -0.8293 H   0  0  0  0  0  0  0  0  0  0  0  0
   -5.3239    5.2615   -2.2463 H   0  0  0  0  0  0  0  0  0  0  0  0
   -6.6816    4.0569   -2.3909 H   0  0  0  0  0  0  0  0  0  0  0  0
   -5.7854    1.9336   -2.6702 H   0  0  0  0  0  0  0  0  0  0  0  0
   -4.7319   -1.0516   -1.4524 H   0  0  0  0  0  0  0  0  0  0  0  0
   -5.0541   -0.1812   -2.9284 H   0  0  0  0  0  0  0  0  0  0  0  0
   -3.3762   -0.5285   -2.6167 H   0  0  0  0  0  0  0  0  0  0  0  0
   -0.8325    1.8186   -1.5129 H   0  0  0  0  0  0  0  0  0  0  0  0
    1.5556    2.2156   -1.4720 H   0  0  0  0  0  0  0  0  0  0  0  0
    3.0175    3.2588    0.4413 H   0  0  0  0  0  0  0  0  0  0  0  0
    5.4842    3.7509    0.5469 H   0  0  0  0  0  0  0  0  0  0  0  0
    7.7223    3.0059    0.4938 H   0  0  0  0  0  0  0  0  0  0  0  0
    9.3658    1.1424    0.2862 H   0  0  0  0  0  0  0  0  0  0  0  0
    9.8398   -1.0983    0.0066 H   0  0  0  0  0  0  0  0  0  0  0  0
    9.0702   -3.4447   -0.3121 H   0  0  0  0  0  0  0  0  0  0  0  0
    6.6703   -3.9469   -0.4178 H   0  0  0  0  0  0  0  0  0  0  0  0
    4.4315   -3.2119   -0.3615 H   0  0  0  0  0  0  0  0  0  0  0  0
    2.7962   -1.4487   -0.1765 H   0  0  0  0  0  0  0  0  0  0  0  0
    1.9286   -0.5139    1.7929 H   0  0  0  0  0  0  0  0  0  0  0  0
   -0.5076   -0.8891    1.6995 H   0  0  0  0  0  0  0  0  0  0  0  0
   -0.4588   -2.5656   -0.6439 H   0  0  0  0  0  0  0  0  0  0  0  0
   -1.3748   -1.2841   -1.5854 H   0  0  0  0  0  0  0  0  0  0  0  0
   -1.6417   -2.9988   -1.8828 H   0  0  0  0  0  0  0  0  0  0  0  0
   -2.6494   -4.4756   -0.2413 H   0  0  0  0  0  0  0  0  0  0  0  0
   -3.9083   -5.8324    1.4370 H   0  0  0  0  0  0  0  0  0  0  0  0
   -5.5109   -5.3489    0.8462 H   0  0  0  0  0  0  0  0  0  0  0  0
   -5.0577   -5.0457    2.5377 H   0  0  0  0  0  0  0  0  0  0  0  0
   -5.4170   -2.6153    2.4098 H   0  0  0  0  0  0  0  0  0  0  0  0
   -3.9054    0.5439    2.5083 H   0  0  0  0  0  0  0  0  0  0  0  0
   -5.4060   -0.3628    2.6962 H   0  0  0  0  0  0  0  0  0  0  0  0
   -5.1353    0.5478    1.2191 H   0  0  0  0  0  0  0  0  0  0  0  0
   -2.8202    3.3189    2.0677 H   0  0  0  0  0  0  0  0  0  0  0  0
   -1.4411    3.3222    0.9709 H   0  0  0  0  0  0  0  0  0  0  0  0
   -2.0181    1.7765    1.7865 H   0  0  0  0  0  0  0  0  0  0  0  0
   -4.0728    4.5155    0.2325 H   0  0  0  0  0  0  0  0  0  0  0  0
  1  2  1  0
  2  3  2  0
  3  4  1  0
  4  5  1  0
  4  6  2  0
  6  7  1  0
  7  8  1  0
  8  9  2  0
  9 10  1  0
 10 11  2  0
 11 12  1  0
 12 13  2  0
 13 14  1  0
 14 15  2  0
 15 16  1  0
 16 17  2  0
 17 18  1  0
 18 19  2  0
 19 20  1  0
 20 21  2  0
 21 22  1  0
 22 23  2  0
 23 24  1  0
 24 25  2  0
 25 26  1  0
 26 27  2  0
 11 28  1  0
 28 29  2  0
  7 30  1  0
 30 31  2  0
 31 32  1  0
 31 33  1  0
 33 34  2  0
 34 35  1  0
 34 36  1  0
 36 37  2  0
 37 38  1  0
  6 39  1  0
 39 40  1  0
 39 41  2  0
 41  2  1  0
 29  8  1  0
 37 30  1  0
 25 12  1  0
 26 15  1  0
 27 18  1  0
 27 22  1  0
  1 42  1  0
  1 43  1  0
  1 44  1  0
  3 45  1  0
  5 46  1  0
  5 47  1  0
  5 48  1  0
  9 49  1  0
 10 50  1  0
 13 51  1  0
 14 52  1  0
 16 53  1  0
 17 54  1  0
 19 55  1  0
 20 56  1  0
 21 57  1  0
 23 58  1  0
 24 59  1  0
 28 60  1  0
 29 61  1  0
 32 62  1  0
 32 63  1  0
 32 64  1  0
 33 65  1  0
 35 66  1  0
 35 67  1  0
 35 68  1  0
 36 69  1  0
 38 70  1  0
 38 71  1  0
 38 72  1  0
 40 73  1  0
 40 74  1  0
 40 75  1  0
 41 76  1  0
M  END
