
     RDKit          3D

 32 34  0  0  0  0  0  0  0  0999 V2000
   -4.8557   -0.5955    0.8855 C   0  0  0  0  0  0  0  0  0  0  0  0
   -4.1066    0.1101   -0.1245 N   0  0  0  0  0  0  0  0  0  0  0  0
   -4.7662    0.9018   -1.1248 C   0  0  0  0  0  0  0  0  0  0  0  0
   -2.6902    0.0243   -0.1021 C   0  0  0  0  0  0  0  0  0  0  0  0
   -1.9977    1.1278    0.3973 C   0  0  0  0  0  0  0  0  0  0  0  0
   -0.6306    1.0729    0.4332 C   0  0  0  0  0  0  0  0  0  0  0  0
    0.1155   -0.0194    0.0018 C   0  0  0  0  0  0  0  0  0  0  0  0
    1.5680   -0.0173    0.0507 C   0  0  0  0  0  0  0  0  0  0  0  0
    2.2717    0.9533    0.4538 N   0  0  0  0  0  0  0  0  0  0  0  0
    3.7228    0.8942    0.4800 C   0  0  0  0  0  0  0  0  0  0  0  0
    4.9329    2.0457    0.9117 S   0  0  0  0  0  0  0  0  0  0  0  0
    6.3040    1.0943    0.5681 C   0  0  0  0  0  0  0  0  0  0  0  0
    5.7435   -0.0724    0.1367 C   0  0  0  0  0  0  0  0  0  0  0  0
    4.4326   -0.1497    0.1018 N   0  0  0  0  0  4  0  0  0  0  0  0
    3.6429   -1.4380   -0.3267 B   0  0  0  0  0  4  0  0  0  0  0  0
    3.8633   -2.4667    0.7009 F   0  0  0  0  0  0  0  0  0  0  0  0
    4.2238   -1.8943   -1.5749 F   0  0  0  0  0  0  0  0  0  0  0  0
    2.2281   -1.1486   -0.3763 O   0  0  0  0  0  0  0  0  0  0  0  0
   -0.5999   -1.0905   -0.4844 C   0  0  0  0  0  0  0  0  0  0  0  0
   -2.0000   -1.0732   -0.5383 C   0  0  0  0  0  0  0  0  0  0  0  0
   -4.5627   -1.6670    0.8459 H   0  0  0  0  0  0  0  0  0  0  0  0
   -5.9412   -0.4382    0.6856 H   0  0  0  0  0  0  0  0  0  0  0  0
   -4.6444   -0.1281    1.8584 H   0  0  0  0  0  0  0  0  0  0  0  0
   -5.6086    1.5237   -0.7018 H   0  0  0  0  0  0  0  0  0  0  0  0
   -4.0234    1.6595   -1.5043 H   0  0  0  0  0  0  0  0  0  0  0  0
   -5.2116    0.3284   -1.9574 H   0  0  0  0  0  0  0  0  0  0  0  0
   -2.5680    1.9931    0.7424 H   0  0  0  0  0  0  0  0  0  0  0  0
   -0.0869    1.9118    0.8101 H   0  0  0  0  0  0  0  0  0  0  0  0
    7.3742    1.3474    0.6644 H   0  0  0  0  0  0  0  0  0  0  0  0
    6.4531   -0.8942   -0.1608 H   0  0  0  0  0  0  0  0  0  0  0  0
   -0.0445   -1.9704   -0.8326 H   0  0  0  0  0  0  0  0  0  0  0  0
   -2.5380   -1.9247   -0.9193 H   0  0  0  0  0  0  0  0  0  0  0  0
  1  2  1  0
  2  3  1  0
  2  4  1  0
  4  5  2  0
  5  6  1  0
  6  7  2  0
  7  8  1  0
  8  9  2  0
  9 10  1  0
 10 11  1  0
 11 12  1  0
 12 13  2  0
 13 14  1  0
 14 15  1  0
 15 16  1  0
 15 17  1  0
 15 18  1  0
  7 19  1  0
 19 20  2  0
 20  4  1  0
 18  8  1  0
 14 10  2  0
  1 21  1  0
  1 22  1  0
  1 23  1  0
  3 24  1  0
  3 25  1  0
  3 26  1  0
  5 27  1  0
  6 28  1  0
 12 29  1  0
 13 30  1  0
 19 31  1  0
 20 32  1  0
M  CHG  2  14   1  15  -1
M  END
