
     RDKit          3D

 52 59  0  0  0  0  0  0  0  0999 V2000
   -1.9664    5.8456    0.5229 C   0  0  0  0  0  0  0  0  0  0  0  0
   -1.5255    4.4337    0.4057 C   0  0  0  0  0  0  0  0  0  0  0  0
   -0.6237    4.0796   -0.5771 C   0  0  0  0  0  0  0  0  0  0  0  0
   -0.2101    2.7640   -0.6874 C   0  0  0  0  0  0  0  0  0  0  0  0
   -0.7186    1.8310    0.2018 C   0  0  0  0  0  0  0  0  0  0  0  0
   -0.2208    0.4696    0.0507 C   0  0  0  0  0  0  0  0  0  0  0  0
   -1.0640   -0.5310    0.0201 C   0  0  0  0  0  0  0  0  0  0  0  0
   -2.5356   -0.5385    0.1156 C   0  0  0  0  0  0  0  0  0  0  0  0
   -2.8667   -1.8194    0.0281 C   0  0  0  0  0  0  0  0  0  0  0  0
   -1.7435   -2.6048   -0.1122 C   0  0  0  0  0  0  0  0  0  0  0  0
   -2.1679   -3.8432   -0.1903 O   0  0  0  0  0  0  0  0  0  0  0  0
   -3.4891   -3.9079   -0.1099 C   0  0  0  0  0  0  0  0  0  0  0  0
   -4.3922   -4.9465   -0.1402 C   0  0  0  0  0  0  0  0  0  0  0  0
   -5.7301   -4.6885   -0.0312 C   0  0  0  0  0  0  0  0  0  0  0  0
   -6.2620   -3.4242    0.1115 C   0  0  0  0  0  0  0  0  0  0  0  0
   -5.3502   -2.3911    0.1407 C   0  0  0  0  0  0  0  0  0  0  0  0
   -3.9909   -2.6304    0.0319 C   0  0  0  0  0  0  0  0  0  0  0  0
   -0.6657   -1.8703   -0.1200 N   0  0  0  0  0  4  0  0  0  0  0  0
    0.7866   -2.2470   -0.2468 B   0  0  0  0  0  4  0  0  0  0  0  0
    1.2211   -3.1298    0.8516 F   0  0  0  0  0  0  0  0  0  0  0  0
    0.9864   -3.0221   -1.4694 F   0  0  0  0  0  0  0  0  0  0  0  0
    1.6880   -1.0215   -0.1894 N   0  0  0  0  0  0  0  0  0  0  0  0
    1.2190    0.2332   -0.0562 C   0  0  0  0  0  0  0  0  0  0  0  0
    2.3030    1.0917   -0.0395 C   0  0  0  0  0  0  0  0  0  0  0  0
    3.4356    0.3197   -0.1666 C   0  0  0  0  0  0  0  0  0  0  0  0
    4.8136    0.2937   -0.2425 C   0  0  0  0  0  0  0  0  0  0  0  0
    5.7188    1.3275   -0.2016 C   0  0  0  0  0  0  0  0  0  0  0  0
    7.0610    1.0200   -0.2995 C   0  0  0  0  0  0  0  0  0  0  0  0
    7.4567   -0.2991   -0.4342 C   0  0  0  0  0  0  0  0  0  0  0  0
    6.5626   -1.3418   -0.4763 C   0  0  0  0  0  0  0  0  0  0  0  0
    5.2140   -1.0221   -0.3771 C   0  0  0  0  0  0  0  0  0  0  0  0
    4.1314   -1.7575   -0.3828 O   0  0  0  0  0  0  0  0  0  0  0  0
    3.0535   -1.0011   -0.2603 C   0  0  0  0  0  0  0  0  0  0  0  0
   -1.6193    2.1754    1.1860 C   0  0  0  0  0  0  0  0  0  0  0  0
   -2.0266    3.4887    1.2887 C   0  0  0  0  0  0  0  0  0  0  0  0
   -1.8537    6.1923    1.5786 H   0  0  0  0  0  0  0  0  0  0  0  0
   -1.2875    6.4890   -0.0778 H   0  0  0  0  0  0  0  0  0  0  0  0
   -3.0079    5.9578    0.2071 H   0  0  0  0  0  0  0  0  0  0  0  0
   -0.2124    4.7829   -1.2816 H   0  0  0  0  0  0  0  0  0  0  0  0
    0.5012    2.4970   -1.4810 H   0  0  0  0  0  0  0  0  0  0  0  0
   -3.2236    0.2644    0.2259 H   0  0  0  0  0  0  0  0  0  0  0  0
   -4.0178   -5.9638   -0.2519 H   0  0  0  0  0  0  0  0  0  0  0  0
   -6.4057   -5.5416   -0.0607 H   0  0  0  0  0  0  0  0  0  0  0  0
   -7.3307   -3.3124    0.1907 H   0  0  0  0  0  0  0  0  0  0  0  0
   -5.7345   -1.3898    0.2515 H   0  0  0  0  0  0  0  0  0  0  0  0
    2.2463    2.1648    0.0618 H   0  0  0  0  0  0  0  0  0  0  0  0
    5.3928    2.3589   -0.0956 H   0  0  0  0  0  0  0  0  0  0  0  0
    7.7825    1.8318   -0.2683 H   0  0  0  0  0  0  0  0  0  0  0  0
    8.5216   -0.4877   -0.5073 H   0  0  0  0  0  0  0  0  0  0  0  0
    6.8797   -2.3494   -0.5802 H   0  0  0  0  0  0  0  0  0  0  0  0
   -2.0075    1.4288    1.8862 H   0  0  0  0  0  0  0  0  0  0  0  0
   -2.7254    3.7414    2.0575 H   0  0  0  0  0  0  0  0  0  0  0  0
  1  2  1  0
  2  3  2  0
  3  4  1  0
  4  5  2  0
  5  6  1  0
  6  7  2  0
  7  8  1  0
  8  9  2  0
  9 10  1  0
 10 11  1  0
 11 12  1  0
 12 13  2  0
 13 14  1  0
 14 15  2  0
 15 16  1  0
 16 17  2  0
 10 18  2  0
 18 19  1  0
 19 20  1  0
 19 21  1  0
 19 22  1  0
 22 23  1  0
 23 24  2  0
 24 25  1  0
 25 26  1  0
 26 27  2  0
 27 28  1  0
 28 29  2  0
 29 30  1  0
 30 31  2  0
 31 32  1  0
 32 33  1  0
  5 34  1  0
 34 35  2  0
 35  2  1  0
 23  6  1  0
 33 25  2  0
 18  7  1  0
 33 22  1  0
 17  9  1  0
 31 26  1  0
 17 12  1  0
  1 36  1  0
  1 37  1  0
  1 38  1  0
  3 39  1  0
  4 40  1  0
  8 41  1  0
 13 42  1  0
 14 43  1  0
 15 44  1  0
 16 45  1  0
 24 46  1  0
 27 47  1  0
 28 48  1  0
 29 49  1  0
 30 50  1  0
 34 51  1  0
 35 52  1  0
M  CHG  2  18   1  19  -1
M  END
