
     RDKit          3D

 84 88  0  0  0  0  0  0  0  0999 V2000
    8.5642   -1.0998    1.4447 C   0  0  0  0  0  0  0  0  0  0  0  0
    7.8748   -2.0100    0.6791 O   0  0  0  0  0  0  0  0  0  0  0  0
    6.5343   -1.6781    0.6492 C   0  0  0  0  0  0  0  0  0  0  0  0
    5.7369   -2.6751   -0.1969 C   0  0  0  0  0  0  0  0  0  0  0  0
    4.2961   -2.2851   -0.2049 C   0  0  0  0  0  0  0  0  0  0  0  0
    3.2656   -2.9808    0.2383 C   0  0  0  0  0  0  0  0  0  0  0  0
    2.0591   -2.1822    0.0139 C   0  0  0  0  0  0  0  0  0  0  0  0
    2.4942   -1.0733   -0.5479 N   0  0  0  0  0  0  0  0  0  0  0  0
    3.7796   -1.0266   -0.7255 C   0  0  0  0  0  0  0  0  0  0  0  0
    4.3757    0.0924   -1.3672 C   0  0  0  0  0  0  0  0  0  0  0  0
    3.7594    1.3315   -1.3794 C   0  0  0  0  0  0  0  0  0  0  0  0
    2.4939    1.7202   -0.9514 C   0  0  0  0  0  0  0  0  0  0  0  0
    1.2672    1.2314   -1.2272 N   0  0  0  0  0  0  0  0  0  0  0  0
    0.4009    1.8930   -0.4709 C   0  0  0  0  0  0  0  0  0  0  0  0
    1.0465    2.8622    0.3252 C   0  0  0  0  0  0  0  0  0  0  0  0
    2.3745    2.7481    0.0160 C   0  0  0  0  0  0  0  0  0  0  0  0
    3.4444    3.6319    0.6139 C   0  0  0  0  0  0  0  0  0  0  0  0
    3.7642    4.7115   -0.3593 C   0  0  0  0  0  0  0  0  0  0  0  0
    4.7640    5.5651    0.1594 O   0  0  0  0  0  0  0  0  0  0  0  0
    5.0297    6.5673   -0.7957 C   0  0  0  0  0  0  0  0  0  0  0  0
   -0.9993    1.6780   -0.2564 C   0  0  0  0  0  0  0  0  0  0  0  0
   -1.5140    0.4802   -0.0483 N   0  0  0  0  0  0  0  0  0  0  0  0
   -2.7972    0.4673    0.2588 C   0  0  0  0  0  0  0  0  0  0  0  0
   -3.4472   -0.7447    0.5415 C   0  0  0  0  0  0  0  0  0  0  0  0
   -4.8296   -0.6831    0.5258 O   0  0  0  0  0  0  0  0  0  0  0  0
   -5.6465   -0.8406   -0.5693 C   0  0  0  0  0  0  0  0  0  0  0  0
   -7.1507   -0.7547   -0.4504 C   0  0  0  0  0  0  0  0  0  0  0  0
   -5.1019   -1.0589   -1.6761 O   0  0  0  0  0  0  0  0  0  0  0  0
   -2.7643   -1.9334    0.8207 C   0  0  0  0  0  0  0  0  0  0  0  0
   -1.4502   -2.3245    0.5570 C   0  0  0  0  0  0  0  0  0  0  0  0
   -0.2740   -1.7027    0.7819 N   0  0  0  0  0  0  0  0  0  0  0  0
    0.6667   -2.4572    0.2219 C   0  0  0  0  0  0  0  0  0  0  0  0
    0.1231   -3.5992   -0.3637 C   0  0  0  0  0  0  0  0  0  0  0  0
   -1.2243   -3.5303   -0.1599 C   0  0  0  0  0  0  0  0  0  0  0  0
   -2.2030   -4.5727   -0.6227 C   0  0  0  0  0  0  0  0  0  0  0  0
   -2.8426   -3.9551   -1.8680 C   0  0  0  0  0  0  0  0  0  0  0  0
   -3.7879   -4.7486   -2.4552 O   0  0  0  0  0  0  0  0  0  0  0  0
   -4.8530   -5.0649   -1.6478 C   0  0  0  0  0  0  0  0  0  0  0  0
   -3.1741    1.8741    0.2424 C   0  0  0  0  0  0  0  0  0  0  0  0
   -4.5304    2.4659    0.5130 C   0  0  0  0  0  0  0  0  0  0  0  0
   -4.9220    2.3471    1.9633 C   0  0  0  0  0  0  0  0  0  0  0  0
   -6.1601    2.9077    2.1569 O   0  0  0  0  0  0  0  0  0  0  0  0
   -7.1990    2.3644    1.4662 C   0  0  0  0  0  0  0  0  0  0  0  0
   -2.1054    2.6080   -0.0683 C   0  0  0  0  0  0  0  0  0  0  0  0
    9.6302   -1.3839    1.4536 H   0  0  0  0  0  0  0  0  0  0  0  0
    8.1285   -1.1134    2.4671 H   0  0  0  0  0  0  0  0  0  0  0  0
    8.4722   -0.0560    1.0784 H   0  0  0  0  0  0  0  0  0  0  0  0
    6.4657   -0.6745    0.1856 H   0  0  0  0  0  0  0  0  0  0  0  0
    6.0941   -1.5821    1.6567 H   0  0  0  0  0  0  0  0  0  0  0  0
    5.8437   -3.6804    0.2312 H   0  0  0  0  0  0  0  0  0  0  0  0
    6.0752   -2.6626   -1.2453 H   0  0  0  0  0  0  0  0  0  0  0  0
    3.3204   -3.9703    0.6846 H   0  0  0  0  0  0  0  0  0  0  0  0
    5.3353   -0.1139   -1.8398 H   0  0  0  0  0  0  0  0  0  0  0  0
    4.4907    2.0847   -1.7932 H   0  0  0  0  0  0  0  0  0  0  0  0
    1.0418    0.4574   -2.0116 H   0  0  0  0  0  0  0  0  0  0  0  0
    0.6146    3.5834    1.0432 H   0  0  0  0  0  0  0  0  0  0  0  0
    4.3561    2.9888    0.7109 H   0  0  0  0  0  0  0  0  0  0  0  0
    3.0892    4.0120    1.5706 H   0  0  0  0  0  0  0  0  0  0  0  0
    2.9007    5.3849   -0.5701 H   0  0  0  0  0  0  0  0  0  0  0  0
    4.1549    4.3576   -1.3239 H   0  0  0  0  0  0  0  0  0  0  0  0
    4.0468    7.0999   -0.9376 H   0  0  0  0  0  0  0  0  0  0  0  0
    5.7723    7.2593   -0.3654 H   0  0  0  0  0  0  0  0  0  0  0  0
    5.3586    6.1345   -1.7625 H   0  0  0  0  0  0  0  0  0  0  0  0
   -7.3706   -0.8746    0.6363 H   0  0  0  0  0  0  0  0  0  0  0  0
   -7.5858   -1.5879   -1.0044 H   0  0  0  0  0  0  0  0  0  0  0  0
   -7.5242    0.2377   -0.7355 H   0  0  0  0  0  0  0  0  0  0  0  0
   -3.4432   -2.6813    1.3139 H   0  0  0  0  0  0  0  0  0  0  0  0
   -0.1234   -0.7831    1.4054 H   0  0  0  0  0  0  0  0  0  0  0  0
    0.6272   -4.4418   -0.8881 H   0  0  0  0  0  0  0  0  0  0  0  0
   -1.6560   -5.4848   -0.8364 H   0  0  0  0  0  0  0  0  0  0  0  0
   -2.9389   -4.6711    0.1945 H   0  0  0  0  0  0  0  0  0  0  0  0
   -2.0031   -3.8300   -2.6188 H   0  0  0  0  0  0  0  0  0  0  0  0
   -3.1593   -2.9183   -1.6560 H   0  0  0  0  0  0  0  0  0  0  0  0
   -5.4178   -4.1862   -1.2886 H   0  0  0  0  0  0  0  0  0  0  0  0
   -4.5419   -5.7607   -0.8581 H   0  0  0  0  0  0  0  0  0  0  0  0
   -5.5881   -5.6317   -2.2921 H   0  0  0  0  0  0  0  0  0  0  0  0
   -4.5281    3.5529    0.2254 H   0  0  0  0  0  0  0  0  0  0  0  0
   -5.2559    1.9283   -0.0948 H   0  0  0  0  0  0  0  0  0  0  0  0
   -4.1584    2.8635    2.6166 H   0  0  0  0  0  0  0  0  0  0  0  0
   -4.9875    1.2894    2.2485 H   0  0  0  0  0  0  0  0  0  0  0  0
   -7.1295    2.3983    0.3641 H   0  0  0  0  0  0  0  0  0  0  0  0
   -8.1281    2.9216    1.7705 H   0  0  0  0  0  0  0  0  0  0  0  0
   -7.3147    1.2862    1.7924 H   0  0  0  0  0  0  0  0  0  0  0  0
   -2.1022    3.6817   -0.1540 H   0  0  0  0  0  0  0  0  0  0  0  0
  1  2  1  0
  2  3  1  0
  3  4  1  0
  4  5  1  0
  5  6  2  0
  6  7  1  0
  7  8  2  0
  8  9  1  0
  9 10  2  0
 10 11  1  0
 11 12  2  0
 12 13  1  0
 13 14  1  0
 14 15  1  0
 15 16  2  0
 16 17  1  0
 17 18  1  0
 18 19  1  0
 19 20  1  0
 14 21  2  0
 21 22  1  0
 22 23  2  0
 23 24  1  0
 24 25  1  0
 25 26  1  0
 26 27  1  0
 26 28  2  0
 24 29  2  0
 29 30  1  0
 30 31  1  0
 31 32  1  0
 32 33  2  0
 33 34  1  0
 34 35  1  0
 35 36  1  0
 36 37  1  0
 37 38  1  0
 23 39  1  0
 39 40  1  0
 40 41  1  0
 41 42  1  0
 42 43  1  0
 39 44  2  0
  9  5  1  0
 16 12  1  0
 44 21  1  0
 32  7  1  0
 34 30  2  0
  1 45  1  0
  1 46  1  0
  1 47  1  0
  3 48  1  0
  3 49  1  0
  4 50  1  0
  4 51  1  0
  6 52  1  0
 10 53  1  0
 11 54  1  0
 13 55  1  0
 15 56  1  0
 17 57  1  0
 17 58  1  0
 18 59  1  0
 18 60  1  0
 20 61  1  0
 20 62  1  0
 20 63  1  0
 27 64  1  0
 27 65  1  0
 27 66  1  0
 29 67  1  0
 31 68  1  0
 33 69  1  0
 35 70  1  0
 35 71  1  0
 36 72  1  0
 36 73  1  0
 38 74  1  0
 38 75  1  0
 38 76  1  0
 40 77  1  0
 40 78  1  0
 41 79  1  0
 41 80  1  0
 43 81  1  0
 43 82  1  0
 43 83  1  0
 44 84  1  0
M  END
