
     RDKit          3D

 84 92  0  0  0  0  0  0  0  0999 V2000
   -1.4775    2.4372   -1.7214 C   0  0  0  0  0  0  0  0  0  0  0  0
   -2.0663    1.4107   -0.7842 C   0  0  0  0  0  0  0  0  0  0  0  0
   -1.2748    0.6019   -0.1019 C   0  0  0  0  0  0  0  0  0  0  0  0
    0.1812    0.4893   -0.0620 C   0  0  0  0  0  0  0  0  0  0  0  0
    0.7665   -0.7863   -0.1064 C   0  0  0  0  0  0  0  0  0  0  0  0
    2.1305   -0.9457   -0.0560 C   0  0  0  0  0  0  0  0  0  0  0  0
    2.9816    0.1367    0.0403 C   0  0  0  0  0  0  0  0  0  0  0  0
    4.4294   -0.0612    0.0911 C   0  0  0  0  0  0  0  0  0  0  0  0
    5.0767   -1.2249    0.0488 N   0  0  0  0  0  0  0  0  0  0  0  0
    6.3997   -1.0402    0.1181 C   0  0  0  0  0  0  0  0  0  0  0  0
    7.3965   -2.1022    0.0956 C   0  0  0  0  0  0  0  0  0  0  0  0
    8.2630   -2.3796    1.1273 C   0  0  0  0  0  0  0  0  0  0  0  0
    9.2030   -3.3876    1.0928 C   0  0  0  0  0  0  0  0  0  0  0  0
    9.2563   -4.1553   -0.0688 C   0  0  0  0  0  0  0  0  0  0  0  0
    8.4151   -3.9230   -1.1305 C   0  0  0  0  0  0  0  0  0  0  0  0
    7.5018   -2.9096   -1.0409 C   0  0  0  0  0  0  0  0  0  0  0  0
    6.5939    0.3165    0.2091 C   0  0  0  0  0  0  0  0  0  0  0  0
    7.8935    0.9696    0.3098 C   0  0  0  0  0  0  0  0  0  0  0  0
    8.8375    0.8706   -0.6711 C   0  0  0  0  0  0  0  0  0  0  0  0
   10.0537    1.5007   -0.5401 C   0  0  0  0  0  0  0  0  0  0  0  0
   10.3786    2.2530    0.5696 C   0  0  0  0  0  0  0  0  0  0  0  0
    9.4218    2.3547    1.5660 C   0  0  0  0  0  0  0  0  0  0  0  0
    8.1966    1.7218    1.4378 C   0  0  0  0  0  0  0  0  0  0  0  0
    5.3884    0.8815    0.1904 N   0  0  0  0  0  0  0  0  0  0  0  0
    2.4209    1.3905    0.0851 C   0  0  0  0  0  0  0  0  0  0  0  0
    1.0354    1.5560    0.0341 C   0  0  0  0  0  0  0  0  0  0  0  0
   -2.3841   -0.4934    0.8622 S   0  0  0  0  0  0  0  0  0  0  0  0
   -3.7815   -0.2521   -0.3344 C   0  0  2  0  0  0  0  0  0  0  0  0
   -3.3253   -0.9189   -1.6165 C   0  0  0  0  0  0  0  0  0  0  0  0
   -3.4901    1.2186   -0.5386 C   0  0  0  0  0  0  0  0  0  0  0  0
   -4.4554    2.1154   -0.5604 C   0  0  0  0  0  0  0  0  0  0  0  0
   -5.8539    1.7247   -0.2714 C   0  0  0  0  0  0  0  0  0  0  0  0
   -6.0921    0.4888    0.0160 C   0  0  0  0  0  0  0  0  0  0  0  0
   -7.3496   -0.2296    0.3421 C   0  0  0  0  0  0  0  0  0  0  0  0
   -8.5258    0.1384    0.9284 C   0  0  0  0  0  0  0  0  0  0  0  0
   -9.5866   -0.7604    1.0887 C   0  0  0  0  0  0  0  0  0  0  0  0
   -9.4393   -2.0391    0.6476 C   0  0  0  0  0  0  0  0  0  0  0  0
   -8.2512   -2.4131    0.0568 C   0  0  0  0  0  0  0  0  0  0  0  0
   -7.2158   -1.5378   -0.0999 C   0  0  0  0  0  0  0  0  0  0  0  0
   -5.8206   -1.6751   -0.6637 C   0  0  0  0  0  0  0  0  0  0  0  0
   -5.3277   -3.0577   -0.4090 C   0  0  0  0  0  0  0  0  0  0  0  0
   -5.0648   -0.6113    0.1583 C   0  0  1  0  0  0  0  0  0  0  0  0
   -5.1291   -1.0045    1.6281 C   0  0  0  0  0  0  0  0  0  0  0  0
   -6.6801    2.9510   -0.4502 C   0  0  0  0  0  0  0  0  0  0  0  0
   -6.9638    3.1419   -1.8028 F   0  0  0  0  0  0  0  0  0  0  0  0
   -7.8053    3.0688    0.2545 F   0  0  0  0  0  0  0  0  0  0  0  0
   -5.6753    4.0270   -0.0278 C   0  0  0  0  0  0  0  0  0  0  0  0
   -5.4163    3.8277    1.3064 F   0  0  0  0  0  0  0  0  0  0  0  0
   -6.1016    5.2767   -0.3398 F   0  0  0  0  0  0  0  0  0  0  0  0
   -4.4748    3.5803   -0.8325 C   0  0  0  0  0  0  0  0  0  0  0  0
   -3.4011    4.2423   -0.2447 F   0  0  0  0  0  0  0  0  0  0  0  0
   -4.6054    3.8644   -2.1657 F   0  0  0  0  0  0  0  0  0  0  0  0
   -0.5548    2.0018   -2.2094 H   0  0  0  0  0  0  0  0  0  0  0  0
   -2.1481    2.6909   -2.5525 H   0  0  0  0  0  0  0  0  0  0  0  0
   -1.1254    3.3436   -1.2056 H   0  0  0  0  0  0  0  0  0  0  0  0
    0.0899   -1.6212   -0.1818 H   0  0  0  0  0  0  0  0  0  0  0  0
    2.5710   -1.9393   -0.0929 H   0  0  0  0  0  0  0  0  0  0  0  0
    8.2112   -1.7771    2.0212 H   0  0  0  0  0  0  0  0  0  0  0  0
    9.8768   -3.5867    1.9224 H   0  0  0  0  0  0  0  0  0  0  0  0
    9.9818   -4.9529   -0.1279 H   0  0  0  0  0  0  0  0  0  0  0  0
    8.4945   -4.5449   -2.0089 H   0  0  0  0  0  0  0  0  0  0  0  0
    6.8417   -2.7344   -1.8836 H   0  0  0  0  0  0  0  0  0  0  0  0
    8.6149    0.2825   -1.5648 H   0  0  0  0  0  0  0  0  0  0  0  0
   10.8018    1.4209   -1.3206 H   0  0  0  0  0  0  0  0  0  0  0  0
   11.3340    2.7511    0.6780 H   0  0  0  0  0  0  0  0  0  0  0  0
    9.6511    2.9434    2.4542 H   0  0  0  0  0  0  0  0  0  0  0  0
    7.4636    1.8208    2.2397 H   0  0  0  0  0  0  0  0  0  0  0  0
    5.1973    1.9123    0.2448 H   0  0  0  0  0  0  0  0  0  0  0  0
    3.0865    2.2400    0.1609 H   0  0  0  0  0  0  0  0  0  0  0  0
    0.6346    2.5512    0.0801 H   0  0  0  0  0  0  0  0  0  0  0  0
   -2.4069   -0.3493   -1.9511 H   0  0  0  0  0  0  0  0  0  0  0  0
   -3.0037   -1.9542   -1.4937 H   0  0  0  0  0  0  0  0  0  0  0  0
   -4.0843   -0.7377   -2.3804 H   0  0  0  0  0  0  0  0  0  0  0  0
   -8.6893    1.1154    1.3135 H   0  0  0  0  0  0  0  0  0  0  0  0
  -10.5079   -0.4593    1.5503 H   0  0  0  0  0  0  0  0  0  0  0  0
  -10.2383   -2.7827    0.7480 H   0  0  0  0  0  0  0  0  0  0  0  0
   -8.1159   -3.4307   -0.3003 H   0  0  0  0  0  0  0  0  0  0  0  0
   -5.8858   -1.3607   -1.7036 H   0  0  0  0  0  0  0  0  0  0  0  0
   -5.2525   -3.5850   -1.4055 H   0  0  0  0  0  0  0  0  0  0  0  0
   -6.1046   -3.6287    0.1467 H   0  0  0  0  0  0  0  0  0  0  0  0
   -4.3582   -3.0726    0.1090 H   0  0  0  0  0  0  0  0  0  0  0  0
   -4.6779   -0.1982    2.2190 H   0  0  0  0  0  0  0  0  0  0  0  0
   -4.6684   -1.9671    1.8434 H   0  0  0  0  0  0  0  0  0  0  0  0
   -6.2152   -1.0393    1.8817 H   0  0  0  0  0  0  0  0  0  0  0  0
  1  2  1  0
  2  3  2  0
  3  4  1  0
  4  5  2  0
  5  6  1  0
  6  7  2  0
  7  8  1  0
  8  9  2  0
  9 10  1  0
 10 11  1  0
 11 12  2  0
 12 13  1  0
 13 14  2  0
 14 15  1  0
 15 16  2  0
 10 17  2  0
 17 18  1  0
 18 19  2  0
 19 20  1  0
 20 21  2  0
 21 22  1  0
 22 23  2  0
 17 24  1  0
  7 25  1  0
 25 26  2  0
  3 27  1  0
 27 28  1  0
 28 29  1  6
 28 30  1  0
 30 31  2  0
 31 32  1  0
 32 33  2  0
 33 34  1  0
 34 35  2  0
 35 36  1  0
 36 37  2  0
 37 38  1  0
 38 39  2  0
 39 40  1  0
 40 41  1  0
 40 42  1  0
 42 43  1  1
 32 44  1  0
 44 45  1  0
 44 46  1  0
 44 47  1  0
 47 48  1  0
 47 49  1  0
 47 50  1  0
 50 51  1  0
 50 52  1  0
 30  2  1  0
 50 31  1  0
 26  4  1  0
 42 28  1  0
 24  8  1  0
 42 33  1  0
 16 11  1  0
 23 18  1  0
 39 34  1  0
  1 53  1  0
  1 54  1  0
  1 55  1  0
  5 56  1  0
  6 57  1  0
 12 58  1  0
 13 59  1  0
 14 60  1  0
 15 61  1  0
 16 62  1  0
 19 63  1  0
 20 64  1  0
 21 65  1  0
 22 66  1  0
 23 67  1  0
 24 68  1  0
 25 69  1  0
 26 70  1  0
 29 71  1  0
 29 72  1  0
 29 73  1  0
 35 74  1  0
 36 75  1  0
 37 76  1  0
 38 77  1  0
 40 78  1  0
 41 79  1  0
 41 80  1  0
 41 81  1  0
 43 82  1  0
 43 83  1  0
 43 84  1  0
M  END
