
     RDKit          3D

 55 58  0  0  0  0  0  0  0  0999 V2000
    6.5596   -3.8628   -0.0309 C   0  0  0  0  0  0  0  0  0  0  0  0
    5.3497   -3.0037    0.0832 C   0  0  0  0  0  0  0  0  0  0  0  0
    4.2038   -3.4641    0.7161 C   0  0  0  0  0  0  0  0  0  0  0  0
    3.0763   -2.6795    0.8289 C   0  0  0  0  0  0  0  0  0  0  0  0
    3.0632   -1.3951    0.3049 C   0  0  0  0  0  0  0  0  0  0  0  0
    1.8418   -0.5900    0.4461 C   0  0  0  0  0  0  0  0  0  0  0  0
    1.7147    0.6237   -0.0068 C   0  0  0  0  0  0  0  0  0  0  0  0
    0.5375    1.4401    0.1051 C   0  0  0  0  0  0  0  0  0  0  0  0
    0.6377    2.8299    0.0321 N   0  0  0  0  0  0  0  0  0  0  0  0
   -0.5763    3.3506    0.1725 C   0  0  0  0  0  0  0  0  0  0  0  0
   -0.9454    4.7808    0.1636 C   0  0  0  0  0  0  0  0  0  0  0  0
    0.0020    5.7431   -0.0017 C   0  0  0  0  0  0  0  0  0  0  0  0
   -0.3957    7.0635   -0.0024 C   0  0  0  0  0  0  0  0  0  0  0  0
   -1.7097    7.4296    0.1577 C   0  0  0  0  0  0  0  0  0  0  0  0
   -2.0951    8.8101    0.1530 N   0  0  0  0  0  4  0  0  0  0  0  0
   -1.2524    9.6960    0.0047 O   0  0  0  0  0  0  0  0  0  0  0  0
   -3.4084    9.1661    0.3134 O   0  0  0  0  0  1  0  0  0  0  0  0
   -2.6743    6.4596    0.3256 C   0  0  0  0  0  0  0  0  0  0  0  0
   -2.2637    5.1528    0.3240 C   0  0  0  0  0  0  0  0  0  0  0  0
   -1.4222    2.3450    0.3261 N   0  0  0  0  0  0  0  0  0  0  0  0
   -0.7583    1.1183    0.2844 C   0  0  0  0  0  0  0  0  0  0  0  0
   -1.5335   -0.1082    0.2367 C   0  0  0  0  0  0  0  0  0  0  0  0
   -1.2399   -1.2212   -0.3661 C   0  0  0  0  0  0  0  0  0  0  0  0
   -2.0778   -2.4318   -0.3653 C   0  0  0  0  0  0  0  0  0  0  0  0
   -3.2824   -2.5300    0.2769 C   0  0  0  0  0  0  0  0  0  0  0  0
   -4.0446   -3.6907    0.2550 C   0  0  0  0  0  0  0  0  0  0  0  0
   -3.6078   -4.8056   -0.4264 C   0  0  0  0  0  0  0  0  0  0  0  0
   -4.4049   -6.0638   -0.4665 C   0  0  0  0  0  0  0  0  0  0  0  0
   -2.3940   -4.6954   -1.0691 C   0  0  0  0  0  0  0  0  0  0  0  0
   -1.6343   -3.5549   -1.0537 C   0  0  0  0  0  0  0  0  0  0  0  0
    4.1655   -0.9154   -0.3190 C   0  0  0  0  0  0  0  0  0  0  0  0
    5.3027   -1.7291   -0.4237 C   0  0  0  0  0  0  0  0  0  0  0  0
    6.2782   -4.8987   -0.3119 H   0  0  0  0  0  0  0  0  0  0  0  0
    7.1644   -3.8221    0.8940 H   0  0  0  0  0  0  0  0  0  0  0  0
    7.1735   -3.4653   -0.8469 H   0  0  0  0  0  0  0  0  0  0  0  0
    4.1658   -4.4654    1.1432 H   0  0  0  0  0  0  0  0  0  0  0  0
    2.1956   -3.0625    1.3273 H   0  0  0  0  0  0  0  0  0  0  0  0
    1.0030   -1.0295    1.0107 H   0  0  0  0  0  0  0  0  0  0  0  0
    2.6054    1.0413   -0.5347 H   0  0  0  0  0  0  0  0  0  0  0  0
    1.0540    5.4743   -0.1309 H   0  0  0  0  0  0  0  0  0  0  0  0
    0.3321    7.8532   -0.1314 H   0  0  0  0  0  0  0  0  0  0  0  0
   -3.7263    6.6764    0.4569 H   0  0  0  0  0  0  0  0  0  0  0  0
   -3.0173    4.3779    0.4559 H   0  0  0  0  0  0  0  0  0  0  0  0
   -2.4501    2.4133    0.4623 H   0  0  0  0  0  0  0  0  0  0  0  0
   -2.5014   -0.1438    0.7891 H   0  0  0  0  0  0  0  0  0  0  0  0
   -0.3296   -1.2503   -0.9456 H   0  0  0  0  0  0  0  0  0  0  0  0
   -3.6949   -1.7020    0.8325 H   0  0  0  0  0  0  0  0  0  0  0  0
   -5.0036   -3.7483    0.7743 H   0  0  0  0  0  0  0  0  0  0  0  0
   -5.4871   -5.8758   -0.3723 H   0  0  0  0  0  0  0  0  0  0  0  0
   -4.0637   -6.6743    0.4075 H   0  0  0  0  0  0  0  0  0  0  0  0
   -4.1477   -6.5826   -1.4116 H   0  0  0  0  0  0  0  0  0  0  0  0
   -2.0492   -5.5679   -1.6041 H   0  0  0  0  0  0  0  0  0  0  0  0
   -0.6783   -3.5040   -1.5738 H   0  0  0  0  0  0  0  0  0  0  0  0
    4.2565    0.0515   -0.7523 H   0  0  0  0  0  0  0  0  0  0  0  0
    6.1870   -1.3633   -0.9164 H   0  0  0  0  0  0  0  0  0  0  0  0
  1  2  1  0
  2  3  2  0
  3  4  1  0
  4  5  2  0
  5  6  1  0
  6  7  2  0
  7  8  1  0
  8  9  1  0
  9 10  2  0
 10 11  1  0
 11 12  2  0
 12 13  1  0
 13 14  2  0
 14 15  1  0
 15 16  2  0
 15 17  1  0
 14 18  1  0
 18 19  2  0
 10 20  1  0
 20 21  1  0
 21 22  1  0
 22 23  2  0
 23 24  1  0
 24 25  2  0
 25 26  1  0
 26 27  2  0
 27 28  1  0
 27 29  1  0
 29 30  2  0
  5 31  1  0
 31 32  2  0
 32  2  1  0
 21  8  2  0
 30 24  1  0
 19 11  1  0
  1 33  1  0
  1 34  1  0
  1 35  1  0
  3 36  1  0
  4 37  1  0
  6 38  1  0
  7 39  1  0
 12 40  1  0
 13 41  1  0
 18 42  1  0
 19 43  1  0
 20 44  1  0
 22 45  1  0
 23 46  1  0
 25 47  1  0
 26 48  1  0
 28 49  1  0
 28 50  1  0
 28 51  1  0
 29 52  1  0
 30 53  1  0
 31 54  1  0
 32 55  1  0
M  CHG  2  15   1  17  -1
M  END
