
     RDKit          3D

140143  0  0  0  0  0  0  0  0999 V2000
   11.8182    3.8223    3.8056 C   0  0  0  0  0  0  0  0  0  0  0  0
   11.4491    4.6743    2.6341 C   0  0  0  0  0  0  0  0  0  0  0  0
   10.3532    3.9816    1.8476 C   0  0  0  0  0  0  0  0  0  0  0  0
   10.8162    2.6530    1.3327 C   0  0  0  0  0  0  0  0  0  0  0  0
    9.7218    2.0069    0.5314 C   0  0  0  0  0  0  0  0  0  0  0  0
    8.5134    1.7139    1.3461 C   0  0  0  0  0  0  0  0  0  0  0  0
    7.4356    1.1193    0.4939 C   0  0  0  0  0  0  0  0  0  0  0  0
    7.9134   -0.1376   -0.1786 C   0  0  0  0  0  0  0  0  0  0  0  0
    6.7623   -0.7206   -1.0404 C   0  0  0  0  0  0  0  0  0  0  0  0
    7.2702   -1.9269   -1.7390 C   0  0  0  0  0  0  0  0  0  0  0  0
    6.2805   -2.6148   -2.6491 C   0  0  0  0  0  0  0  0  0  0  0  0
    5.8536   -1.6227   -3.6808 C   0  0  0  0  0  0  0  0  0  0  0  0
    4.9214   -2.1059   -4.6731 N   0  0  0  0  0  0  0  0  0  0  0  0
    5.3399   -2.6162   -5.8808 C   0  0  0  0  0  0  0  0  0  0  0  0
    4.2716   -2.9515   -6.6256 C   0  0  0  0  0  0  0  0  0  0  0  0
    3.1390   -2.6693   -5.9236 C   0  0  0  0  0  0  0  0  0  0  0  0
    3.5884   -2.1292   -4.6746 C   0  0  0  0  0  0  0  0  0  0  0  0
    2.6411   -1.7494   -3.6438 C   0  0  0  0  0  0  0  0  0  0  0  0
    2.8974   -1.3793   -2.4373 C   0  0  0  0  0  0  0  0  0  0  0  0
    1.9691   -1.0015   -1.3849 C   0  0  0  0  0  0  0  0  0  0  0  0
    2.2706    0.2380   -0.7858 C   0  0  0  0  0  0  0  0  0  0  0  0
    1.4864    0.7534    0.1892 C   0  0  0  0  0  0  0  0  0  0  0  0
    0.3576    0.0706    0.6268 C   0  0  0  0  0  0  0  0  0  0  0  0
   -0.4093    0.6621    1.6335 O   0  0  0  0  0  0  0  0  0  0  0  0
   -0.0111    1.9043    2.1947 C   0  0  0  0  0  0  0  0  0  0  0  0
   -0.9652    2.3858    3.2297 C   0  0  0  0  0  0  0  0  0  0  0  0
   -1.1839    1.4221    4.3695 C   0  0  0  0  0  0  0  0  0  0  0  0
    0.0535    1.0934    5.1365 C   0  0  0  0  0  0  0  0  0  0  0  0
    0.0349   -1.1431    0.0691 C   0  0  0  0  0  0  0  0  0  0  0  0
   -1.0234   -1.8546    0.5829 C   0  0  0  0  0  0  0  0  0  0  0  0
   -2.0105   -1.3025    1.5393 C   0  0  0  0  0  0  0  0  0  0  0  0
   -2.8163   -2.0953    2.2231 C   0  0  0  0  0  0  0  0  0  0  0  0
   -3.8106   -1.6422    3.1663 C   0  0  0  0  0  0  0  0  0  0  0  0
   -4.3547   -2.5761    4.0870 C   0  0  0  0  0  0  0  0  0  0  0  0
   -5.2844   -1.9506    4.8447 C   0  0  0  0  0  0  0  0  0  0  0  0
   -5.3297   -0.6648    4.4193 C   0  0  0  0  0  0  0  0  0  0  0  0
   -4.4237   -0.4917    3.3900 N   0  0  0  0  0  0  0  0  0  0  0  0
   -4.3475    0.7598    2.7113 C   0  0  0  0  0  0  0  0  0  0  0  0
   -5.4502    0.8502    1.6406 C   0  0  0  0  0  0  0  0  0  0  0  0
   -5.2732    2.1626    0.9577 C   0  0  0  0  0  0  0  0  0  0  0  0
   -6.3359    2.4412   -0.1074 C   0  0  0  0  0  0  0  0  0  0  0  0
   -7.6947    2.4898    0.5569 C   0  0  0  0  0  0  0  0  0  0  0  0
   -8.8226    2.7836   -0.3907 C   0  0  0  0  0  0  0  0  0  0  0  0
   -8.9945    1.7526   -1.4709 C   0  0  0  0  0  0  0  0  0  0  0  0
  -10.1408    2.1268   -2.3863 C   0  0  0  0  0  0  0  0  0  0  0  0
  -11.4591    2.2602   -1.6952 C   0  0  0  0  0  0  0  0  0  0  0  0
  -12.5580    2.6361   -2.6836 C   0  0  0  0  0  0  0  0  0  0  0  0
  -13.8866    2.7873   -2.0187 C   0  0  0  0  0  0  0  0  0  0  0  0
  -14.8950    3.1628   -3.0941 C   0  0  0  0  0  0  0  0  0  0  0  0
   -1.2291   -3.1144    0.0733 C   0  0  0  0  0  0  0  0  0  0  0  0
   -0.4318   -3.6524   -0.8970 C   0  0  0  0  0  0  0  0  0  0  0  0
    0.6412   -2.9615   -1.4416 C   0  0  0  0  0  0  0  0  0  0  0  0
    1.4044   -3.5535   -2.4025 O   0  0  0  0  0  0  0  0  0  0  0  0
    1.4841   -4.7251   -3.0369 C   0  0  0  0  0  0  0  0  0  0  0  0
    1.9320   -6.0050   -2.5058 C   0  0  0  0  0  0  0  0  0  0  0  0
    1.3502   -6.6822   -1.3342 C   0  0  0  0  0  0  0  0  0  0  0  0
    1.5047   -6.0245   -0.0030 C   0  0  0  0  0  0  0  0  0  0  0  0
    0.8758   -1.6720   -0.9526 C   0  0  0  0  0  0  0  0  0  0  0  0
   10.8787    3.3875    4.2456 H   0  0  0  0  0  0  0  0  0  0  0  0
   12.2780    4.4880    4.5965 H   0  0  0  0  0  0  0  0  0  0  0  0
   12.4856    2.9825    3.5708 H   0  0  0  0  0  0  0  0  0  0  0  0
   11.0927    5.6615    2.9398 H   0  0  0  0  0  0  0  0  0  0  0  0
   12.3564    4.7474    1.9743 H   0  0  0  0  0  0  0  0  0  0  0  0
    9.5207    3.8198    2.5529 H   0  0  0  0  0  0  0  0  0  0  0  0
   10.0529    4.5857    0.9636 H   0  0  0  0  0  0  0  0  0  0  0  0
   11.0783    2.0077    2.2217 H   0  0  0  0  0  0  0  0  0  0  0  0
   11.7068    2.7504    0.6746 H   0  0  0  0  0  0  0  0  0  0  0  0
   10.1160    1.0497    0.1120 H   0  0  0  0  0  0  0  0  0  0  0  0
    9.5071    2.6792   -0.3399 H   0  0  0  0  0  0  0  0  0  0  0  0
    8.8145    0.9276    2.0991 H   0  0  0  0  0  0  0  0  0  0  0  0
    8.1313    2.5843    1.9406 H   0  0  0  0  0  0  0  0  0  0  0  0
    6.5462    0.9381    1.1404 H   0  0  0  0  0  0  0  0  0  0  0  0
    7.1460    1.8849   -0.2794 H   0  0  0  0  0  0  0  0  0  0  0  0
    8.7013    0.1590   -0.9174 H   0  0  0  0  0  0  0  0  0  0  0  0
    8.3213   -0.8716    0.5074 H   0  0  0  0  0  0  0  0  0  0  0  0
    5.9186   -1.0040   -0.3619 H   0  0  0  0  0  0  0  0  0  0  0  0
    6.4403    0.1196   -1.6485 H   0  0  0  0  0  0  0  0  0  0  0  0
    7.6904   -2.6289   -0.9896 H   0  0  0  0  0  0  0  0  0  0  0  0
    8.1105   -1.6010   -2.4193 H   0  0  0  0  0  0  0  0  0  0  0  0
    6.8704   -3.4599   -3.1205 H   0  0  0  0  0  0  0  0  0  0  0  0
    5.4736   -3.1235   -2.1047 H   0  0  0  0  0  0  0  0  0  0  0  0
    5.6311   -0.6088   -3.2991 H   0  0  0  0  0  0  0  0  0  0  0  0
    6.8392   -1.4070   -4.2545 H   0  0  0  0  0  0  0  0  0  0  0  0
    6.3973   -2.7253   -6.1741 H   0  0  0  0  0  0  0  0  0  0  0  0
    4.3081   -3.3766   -7.6296 H   0  0  0  0  0  0  0  0  0  0  0  0
    2.1047   -2.8068   -6.2054 H   0  0  0  0  0  0  0  0  0  0  0  0
    1.5592   -1.6994   -3.9660 H   0  0  0  0  0  0  0  0  0  0  0  0
    3.9340   -1.3400   -2.1341 H   0  0  0  0  0  0  0  0  0  0  0  0
    3.1638    0.7692   -1.1394 H   0  0  0  0  0  0  0  0  0  0  0  0
    1.7030    1.7058    0.6619 H   0  0  0  0  0  0  0  0  0  0  0  0
    0.0671    2.6829    1.4128 H   0  0  0  0  0  0  0  0  0  0  0  0
    1.0264    1.8082    2.6215 H   0  0  0  0  0  0  0  0  0  0  0  0
   -0.5624    3.3211    3.7341 H   0  0  0  0  0  0  0  0  0  0  0  0
   -1.9138    2.7194    2.7837 H   0  0  0  0  0  0  0  0  0  0  0  0
   -1.9376    1.7967    5.0873 H   0  0  0  0  0  0  0  0  0  0  0  0
   -1.6143    0.4574    3.9726 H   0  0  0  0  0  0  0  0  0  0  0  0
    0.9375    0.9452    4.4992 H   0  0  0  0  0  0  0  0  0  0  0  0
    0.2239    1.7924    5.9831 H   0  0  0  0  0  0  0  0  0  0  0  0
   -0.1303    0.0896    5.6238 H   0  0  0  0  0  0  0  0  0  0  0  0
   -2.1288   -0.2732    1.7143 H   0  0  0  0  0  0  0  0  0  0  0  0
   -2.7248   -3.1913    2.0657 H   0  0  0  0  0  0  0  0  0  0  0  0
   -4.0898   -3.6217    4.1974 H   0  0  0  0  0  0  0  0  0  0  0  0
   -5.8604   -2.4450    5.6393 H   0  0  0  0  0  0  0  0  0  0  0  0
   -5.9831    0.0862    4.8419 H   0  0  0  0  0  0  0  0  0  0  0  0
   -3.4556    1.1049    2.2649 H   0  0  0  0  0  0  0  0  0  0  0  0
   -4.6453    1.6052    3.4382 H   0  0  0  0  0  0  0  0  0  0  0  0
   -5.3147   -0.0190    0.9829 H   0  0  0  0  0  0  0  0  0  0  0  0
   -6.3970    0.7708    2.2099 H   0  0  0  0  0  0  0  0  0  0  0  0
   -5.3308    3.0163    1.6639 H   0  0  0  0  0  0  0  0  0  0  0  0
   -4.2566    2.1682    0.4921 H   0  0  0  0  0  0  0  0  0  0  0  0
   -6.1098    3.4587   -0.5033 H   0  0  0  0  0  0  0  0  0  0  0  0
   -6.2942    1.7217   -0.9286 H   0  0  0  0  0  0  0  0  0  0  0  0
   -7.8909    1.4950    1.0569 H   0  0  0  0  0  0  0  0  0  0  0  0
   -7.6942    3.2921    1.3381 H   0  0  0  0  0  0  0  0  0  0  0  0
   -9.7777    2.8853    0.1954 H   0  0  0  0  0  0  0  0  0  0  0  0
   -8.6261    3.7637   -0.8793 H   0  0  0  0  0  0  0  0  0  0  0  0
   -9.1006    0.7279   -1.0532 H   0  0  0  0  0  0  0  0  0  0  0  0
   -8.0826    1.7297   -2.1071 H   0  0  0  0  0  0  0  0  0  0  0  0
   -9.8495    3.0627   -2.8991 H   0  0  0  0  0  0  0  0  0  0  0  0
  -10.1942    1.3473   -3.1841 H   0  0  0  0  0  0  0  0  0  0  0  0
  -11.7049    1.3106   -1.1740 H   0  0  0  0  0  0  0  0  0  0  0  0
  -11.4174    3.1214   -0.9672 H   0  0  0  0  0  0  0  0  0  0  0  0
  -12.6674    1.8481   -3.4660 H   0  0  0  0  0  0  0  0  0  0  0  0
  -12.2925    3.5579   -3.2023 H   0  0  0  0  0  0  0  0  0  0  0  0
  -13.8865    3.5968   -1.2417 H   0  0  0  0  0  0  0  0  0  0  0  0
  -14.2473    1.8689   -1.5488 H   0  0  0  0  0  0  0  0  0  0  0  0
  -15.2362    2.2525   -3.6362 H   0  0  0  0  0  0  0  0  0  0  0  0
  -14.4928    3.8606   -3.8268 H   0  0  0  0  0  0  0  0  0  0  0  0
  -15.7766    3.6542   -2.5928 H   0  0  0  0  0  0  0  0  0  0  0  0
   -2.0839   -3.6960    0.4619 H   0  0  0  0  0  0  0  0  0  0  0  0
   -0.6489   -4.6525   -1.2769 H   0  0  0  0  0  0  0  0  0  0  0  0
    2.1006   -4.5356   -4.0106 H   0  0  0  0  0  0  0  0  0  0  0  0
    0.4538   -4.9762   -3.5610 H   0  0  0  0  0  0  0  0  0  0  0  0
    1.8059   -6.7730   -3.3726 H   0  0  0  0  0  0  0  0  0  0  0  0
    3.0896   -6.0380   -2.4359 H   0  0  0  0  0  0  0  0  0  0  0  0
    1.7285   -7.7371   -1.2140 H   0  0  0  0  0  0  0  0  0  0  0  0
    0.2550   -6.8335   -1.5474 H   0  0  0  0  0  0  0  0  0  0  0  0
    0.5026   -5.9824    0.5143 H   0  0  0  0  0  0  0  0  0  0  0  0
    2.0200   -5.0559   -0.0205 H   0  0  0  0  0  0  0  0  0  0  0  0
    2.1218   -6.6612    0.7038 H   0  0  0  0  0  0  0  0  0  0  0  0
  1  2  1  0
  2  3  1  0
  3  4  1  0
  4  5  1  0
  5  6  1  0
  6  7  1  0
  7  8  1  0
  8  9  1  0
  9 10  1  0
 10 11  1  0
 11 12  1  0
 12 13  1  0
 13 14  1  0
 14 15  2  0
 15 16  1  0
 16 17  2  0
 17 18  1  0
 18 19  2  0
 19 20  1  0
 20 21  2  0
 21 22  1  0
 22 23  2  0
 23 24  1  0
 24 25  1  0
 25 26  1  0
 26 27  1  0
 27 28  1  0
 23 29  1  0
 29 30  2  0
 30 31  1  0
 31 32  2  0
 32 33  1  0
 33 34  2  0
 34 35  1  0
 35 36  2  0
 36 37  1  0
 37 38  1  0
 38 39  1  0
 39 40  1  0
 40 41  1  0
 41 42  1  0
 42 43  1  0
 43 44  1  0
 44 45  1  0
 45 46  1  0
 46 47  1  0
 47 48  1  0
 48 49  1  0
 30 50  1  0
 50 51  2  0
 51 52  1  0
 52 53  1  0
 53 54  1  0
 54 55  1  0
 55 56  1  0
 56 57  1  0
 52 58  2  0
 17 13  1  0
 58 20  1  0
 58 29  1  0
 37 33  1  0
  1 59  1  0
  1 60  1  0
  1 61  1  0
  2 62  1  0
  2 63  1  0
  3 64  1  0
  3 65  1  0
  4 66  1  0
  4 67  1  0
  5 68  1  0
  5 69  1  0
  6 70  1  0
  6 71  1  0
  7 72  1  0
  7 73  1  0
  8 74  1  0
  8 75  1  0
  9 76  1  0
  9 77  1  0
 10 78  1  0
 10 79  1  0
 11 80  1  0
 11 81  1  0
 12 82  1  0
 12 83  1  0
 14 84  1  0
 15 85  1  0
 16 86  1  0
 18 87  1  0
 19 88  1  0
 21 89  1  0
 22 90  1  0
 25 91  1  0
 25 92  1  0
 26 93  1  0
 26 94  1  0
 27 95  1  0
 27 96  1  0
 28 97  1  0
 28 98  1  0
 28 99  1  0
 31100  1  0
 32101  1  0
 34102  1  0
 35103  1  0
 36104  1  0
 38105  1  0
 38106  1  0
 39107  1  0
 39108  1  0
 40109  1  0
 40110  1  0
 41111  1  0
 41112  1  0
 42113  1  0
 42114  1  0
 43115  1  0
 43116  1  0
 44117  1  0
 44118  1  0
 45119  1  0
 45120  1  0
 46121  1  0
 46122  1  0
 47123  1  0
 47124  1  0
 48125  1  0
 48126  1  0
 49127  1  0
 49128  1  0
 49129  1  0
 50130  1  0
 51131  1  0
 54132  1  0
 54133  1  0
 55134  1  0
 55135  1  0
 56136  1  0
 56137  1  0
 57138  1  0
 57139  1  0
 57140  1  0
M  END
