
     RDKit          3D

 41 43  0  0  0  0  0  0  0  0999 V2000
   -5.9466    2.2328    1.0670 C   0  0  0  0  0  0  0  0  0  0  0  0
   -4.4899    1.9129    0.8642 C   0  0  0  0  0  0  0  0  0  0  0  0
   -3.6644    2.7922    1.1345 O   0  0  0  0  0  0  0  0  0  0  0  0
   -4.1698    0.6067    0.3706 C   0  0  0  0  0  0  0  0  0  0  0  0
   -5.1285   -0.3584    0.0769 C   0  0  0  0  0  0  0  0  0  0  0  0
   -4.6109   -1.5415   -0.3837 C   0  0  0  0  0  0  0  0  0  0  0  0
   -5.4440   -2.4454   -0.6625 O   0  0  0  0  0  0  0  0  0  0  0  0
   -3.3162   -1.8168   -0.5607 N   0  0  0  0  0  0  0  0  0  0  0  0
   -2.9396   -3.1434   -1.0650 C   0  0  0  0  0  0  0  0  0  0  0  0
   -2.3445   -0.8851   -0.2800 C   0  0  0  0  0  0  0  0  0  0  0  0
   -1.0138   -1.0100   -0.4045 C   0  0  0  0  0  0  0  0  0  0  0  0
   -0.2347    0.0630   -0.0609 C   0  0  0  0  0  0  0  0  0  0  0  0
    1.2305    0.1717   -0.1085 C   0  0  0  0  0  0  0  0  0  0  0  0
    1.8210    1.3473    0.2836 C   0  0  0  0  0  0  0  0  0  0  0  0
    3.2131    1.4664    0.2441 C   0  0  0  0  0  0  0  0  0  0  0  0
    4.0086    0.4034   -0.1895 C   0  0  0  0  0  0  0  0  0  0  0  0
    5.4108    0.4886   -0.2419 N   0  0  0  0  0  0  0  0  0  0  0  0
    6.2252   -0.6156   -0.6928 C   0  0  0  0  0  0  0  0  0  0  0  0
    6.0712    1.7089    0.1637 C   0  0  0  0  0  0  0  0  0  0  0  0
    3.4078   -0.7601   -0.5767 C   0  0  0  0  0  0  0  0  0  0  0  0
    2.0232   -0.8512   -0.5274 C   0  0  0  0  0  0  0  0  0  0  0  0
   -1.3941    1.2246    0.4300 S   0  0  0  0  0  0  0  0  0  0  0  0
   -2.8137    0.3143    0.1837 C   0  0  0  0  0  0  0  0  0  0  0  0
   -6.0640    3.1408    1.7009 H   0  0  0  0  0  0  0  0  0  0  0  0
   -6.4801    2.3616    0.1225 H   0  0  0  0  0  0  0  0  0  0  0  0
   -6.4523    1.4046    1.6201 H   0  0  0  0  0  0  0  0  0  0  0  0
   -6.1512   -0.1292    0.2210 H   0  0  0  0  0  0  0  0  0  0  0  0
   -2.0112   -3.1274   -1.6345 H   0  0  0  0  0  0  0  0  0  0  0  0
   -2.8054   -3.8158   -0.1746 H   0  0  0  0  0  0  0  0  0  0  0  0
   -3.7514   -3.5709   -1.6555 H   0  0  0  0  0  0  0  0  0  0  0  0
   -0.5010   -1.9305   -0.7693 H   0  0  0  0  0  0  0  0  0  0  0  0
    1.2095    2.1690    0.6185 H   0  0  0  0  0  0  0  0  0  0  0  0
    3.7111    2.3586    0.5386 H   0  0  0  0  0  0  0  0  0  0  0  0
    5.8943   -1.0162   -1.6759 H   0  0  0  0  0  0  0  0  0  0  0  0
    6.0542   -1.4563    0.0356 H   0  0  0  0  0  0  0  0  0  0  0  0
    7.2795   -0.3551   -0.7766 H   0  0  0  0  0  0  0  0  0  0  0  0
    5.6220    1.9935    1.1479 H   0  0  0  0  0  0  0  0  0  0  0  0
    7.1547    1.5523    0.2490 H   0  0  0  0  0  0  0  0  0  0  0  0
    5.8074    2.4785   -0.5933 H   0  0  0  0  0  0  0  0  0  0  0  0
    4.0240   -1.5883   -0.9143 H   0  0  0  0  0  0  0  0  0  0  0  0
    1.5591   -1.7746   -0.8354 H   0  0  0  0  0  0  0  0  0  0  0  0
  1  2  1  0
  2  3  2  0
  2  4  1  0
  4  5  2  0
  5  6  1  0
  6  7  2  0
  6  8  1  0
  8  9  1  0
  8 10  1  0
 10 11  1  0
 11 12  2  0
 12 13  1  0
 13 14  2  0
 14 15  1  0
 15 16  2  0
 16 17  1  0
 17 18  1  0
 17 19  1  0
 16 20  1  0
 20 21  2  0
 12 22  1  0
 22 23  1  0
 23  4  1  0
 23 10  2  0
 21 13  1  0
  1 24  1  0
  1 25  1  0
  1 26  1  0
  5 27  1  0
  9 28  1  0
  9 29  1  0
  9 30  1  0
 11 31  1  0
 14 32  1  0
 15 33  1  0
 18 34  1  0
 18 35  1  0
 18 36  1  0
 19 37  1  0
 19 38  1  0
 19 39  1  0
 20 40  1  0
 21 41  1  0
M  END
