
     RDKit          3D

 36 39  0  0  0  0  0  0  0  0999 V2000
    7.3877   -1.0190   -0.5705 C   0  0  0  0  0  0  0  0  0  0  0  0
    5.9450   -0.7519   -0.2231 C   0  0  0  0  0  0  0  0  0  0  0  0
    5.0735   -1.5816    0.4349 C   0  0  0  0  0  0  0  0  0  0  0  0
    3.8694   -1.1574    0.6338 N   0  0  0  0  0  0  0  0  0  0  0  0
    3.5165    0.0464    0.2040 C   0  0  0  0  0  0  0  0  0  0  0  0
    2.2291    0.6950    0.3285 N   0  0  0  0  0  0  0  0  0  0  0  0
    1.2295    0.2934   -0.3279 N   0  0  0  0  0  0  0  0  0  0  0  0
   -0.0588    0.9427   -0.2030 C   0  0  0  0  0  0  0  0  0  0  0  0
   -0.4449    2.6043   -0.2388 S   0  0  0  0  0  0  0  0  0  0  0  0
   -2.1291    2.4944   -0.0276 C   0  0  0  0  0  0  0  0  0  0  0  0
   -3.0672    3.6237    0.0307 C   0  0  0  0  0  0  0  0  0  0  0  0
   -4.4208    3.6175    0.1963 C   0  0  0  0  0  0  0  0  0  0  0  0
   -5.0464    4.8166    0.2129 C   0  0  0  0  0  0  0  0  0  0  0  0
   -4.2569    5.9286    0.0610 C   0  0  0  0  0  0  0  0  0  0  0  0
   -2.6931    5.2745   -0.0973 S   0  0  0  0  0  0  0  0  0  0  0  0
   -2.3496    1.1595    0.0660 C   0  0  0  0  0  0  0  0  0  0  0  0
   -1.2815    0.3462   -0.0239 C   0  0  0  0  0  0  0  0  0  0  0  0
   -1.3845   -1.1434    0.0630 C   0  0  0  0  0  0  0  0  0  0  0  0
   -0.4169   -2.0363   -0.0107 N   0  0  0  0  0  0  0  0  0  0  0  0
   -0.6980   -3.2951    0.0865 C   0  0  0  0  0  0  0  0  0  0  0  0
   -2.0159   -3.6406    0.2648 C   0  0  0  0  0  0  0  0  0  0  0  0
   -2.5671   -5.0378    0.4018 C   0  0  0  0  0  0  0  0  0  0  0  0
   -2.7734   -2.1114    0.2811 S   0  0  0  0  0  0  0  0  0  0  0  0
    4.9587    0.6120   -0.5198 S   0  0  0  0  0  0  0  0  0  0  0  0
    7.4597   -0.8360   -1.6685 H   0  0  0  0  0  0  0  0  0  0  0  0
    7.5574   -2.0826   -0.4116 H   0  0  0  0  0  0  0  0  0  0  0  0
    8.0640   -0.3788    0.0034 H   0  0  0  0  0  0  0  0  0  0  0  0
    5.4163   -2.5822    0.7761 H   0  0  0  0  0  0  0  0  0  0  0  0
   -5.0133    2.6736    0.3157 H   0  0  0  0  0  0  0  0  0  0  0  0
   -6.1572    4.9323    0.3427 H   0  0  0  0  0  0  0  0  0  0  0  0
   -4.6020    6.9794    0.0508 H   0  0  0  0  0  0  0  0  0  0  0  0
   -3.3844    0.7773    0.2114 H   0  0  0  0  0  0  0  0  0  0  0  0
    0.0939   -4.0793    0.0288 H   0  0  0  0  0  0  0  0  0  0  0  0
   -3.3959   -5.0579    1.1364 H   0  0  0  0  0  0  0  0  0  0  0  0
   -1.7465   -5.6475    0.8042 H   0  0  0  0  0  0  0  0  0  0  0  0
   -2.8974   -5.3784   -0.5792 H   0  0  0  0  0  0  0  0  0  0  0  0
  1  2  1  0
  2  3  2  0
  3  4  1  0
  4  5  2  0
  5  6  1  0
  6  7  2  0
  7  8  1  0
  8  9  1  0
  9 10  1  0
 10 11  1  0
 11 12  2  0
 12 13  1  0
 13 14  2  0
 14 15  1  0
 10 16  2  0
 16 17  1  0
 17 18  1  0
 18 19  2  0
 19 20  1  0
 20 21  2  0
 21 22  1  0
 21 23  1  0
  5 24  1  0
 24  2  1  0
 17  8  2  0
 23 18  1  0
 15 11  1  0
  1 25  1  0
  1 26  1  0
  1 27  1  0
  3 28  1  0
 12 29  1  0
 13 30  1  0
 14 31  1  0
 16 32  1  0
 20 33  1  0
 22 34  1  0
 22 35  1  0
 22 36  1  0
M  END
