
     RDKit          3D

 78 85  0  0  0  0  0  0  0  0999 V2000
   -4.7723    1.9577   -0.5706 C   0  0  0  0  0  0  0  0  0  0  0  0
   -5.6792    1.0438   -0.4633 C   0  0  0  0  0  0  0  0  0  0  0  0
   -7.0932    1.3697   -0.8046 C   0  0  0  0  0  0  0  0  0  0  0  0
   -7.3647    2.6958   -0.6527 C   0  0  0  0  0  0  0  0  0  0  0  0
   -8.6158    3.1856   -0.9617 C   0  0  0  0  0  0  0  0  0  0  0  0
   -9.5915    2.3340   -1.4237 C   0  0  0  0  0  0  0  0  0  0  0  0
   -9.3078    1.0045   -1.5695 C   0  0  0  0  0  0  0  0  0  0  0  0
   -8.0468    0.4770   -1.2634 C   0  0  0  0  0  0  0  0  0  0  0  0
   -8.0116   -0.9765   -1.4526 C   0  0  0  0  0  0  0  0  0  0  0  0
   -6.7075   -1.6446   -1.6720 C   0  0  0  0  0  0  0  0  0  0  0  0
   -5.7377   -1.5074   -0.5512 C   0  0  0  0  0  0  0  0  0  0  0  0
   -5.2857   -2.6862   -0.0402 C   0  0  0  0  0  0  0  0  0  0  0  0
   -4.3980   -2.6498    1.0271 C   0  0  0  0  0  0  0  0  0  0  0  0
   -3.9972   -1.4384    1.5411 C   0  0  0  0  0  0  0  0  0  0  0  0
   -4.4366   -0.2287    1.0480 C   0  0  0  0  0  0  0  0  0  0  0  0
   -5.3118   -0.2869   -0.0091 C   0  0  0  0  0  0  0  0  0  0  0  0
   -3.3383    1.8849   -0.3099 C   0  0  0  0  0  0  0  0  0  0  0  0
   -2.6286    2.8087    0.4205 C   0  0  0  0  0  0  0  0  0  0  0  0
   -1.2646    2.6934    0.5828 C   0  0  0  0  0  0  0  0  0  0  0  0
   -0.5895    1.6232   -0.0023 C   0  0  0  0  0  0  0  0  0  0  0  0
    0.8465    1.4501    0.1599 C   0  0  0  0  0  0  0  0  0  0  0  0
    1.6108    0.8713   -0.8209 C   0  0  0  0  0  0  0  0  0  0  0  0
    2.9596    0.7177   -0.6230 C   0  0  0  0  0  0  0  0  0  0  0  0
    3.6094    1.1195    0.5312 C   0  0  0  0  0  0  0  0  0  0  0  0
    5.0282    0.9712    0.7192 C   0  0  0  0  0  0  0  0  0  0  0  0
    5.7446   -0.0753    0.4964 C   0  0  0  0  0  0  0  0  0  0  0  0
    7.2231   -0.0220    0.7409 C   0  0  0  0  0  0  0  0  0  0  0  0
    7.4614    0.8040    1.8025 C   0  0  0  0  0  0  0  0  0  0  0  0
    8.7696    0.9991    2.1783 C   0  0  0  0  0  0  0  0  0  0  0  0
    9.7687    0.3542    1.4662 C   0  0  0  0  0  0  0  0  0  0  0  0
    9.4985   -0.4676    0.4081 C   0  0  0  0  0  0  0  0  0  0  0  0
    8.1560   -0.6882   -0.0020 C   0  0  0  0  0  0  0  0  0  0  0  0
    8.0994   -1.5948   -1.1343 C   0  0  0  0  0  0  0  0  0  0  0  0
    6.8471   -2.0381   -1.7483 C   0  0  0  0  0  0  0  0  0  0  0  0
    5.6252   -2.1281   -0.9669 C   0  0  0  0  0  0  0  0  0  0  0  0
    4.8641   -3.2327   -1.2603 C   0  0  0  0  0  0  0  0  0  0  0  0
    3.6769   -3.5113   -0.6088 C   0  0  0  0  0  0  0  0  0  0  0  0
    3.2004   -2.6748    0.3833 C   0  0  0  0  0  0  0  0  0  0  0  0
    3.9339   -1.5653    0.7017 C   0  0  0  0  0  0  0  0  0  0  0  0
    5.0995   -1.3164    0.0383 C   0  0  0  0  0  0  0  0  0  0  0  0
    2.7831    1.7044    1.4976 C   0  0  0  0  0  0  0  0  0  0  0  0
    1.4418    1.8660    1.3203 C   0  0  0  0  0  0  0  0  0  0  0  0
   -1.2837    0.6965   -0.7339 C   0  0  0  0  0  0  0  0  0  0  0  0
   -2.6501    0.8381   -0.8795 C   0  0  0  0  0  0  0  0  0  0  0  0
   -5.1376    2.9371   -0.9421 H   0  0  0  0  0  0  0  0  0  0  0  0
   -6.6063    3.3506   -0.2622 H   0  0  0  0  0  0  0  0  0  0  0  0
   -8.8253    4.2449   -0.8410 H   0  0  0  0  0  0  0  0  0  0  0  0
  -10.5897    2.7224   -1.6715 H   0  0  0  0  0  0  0  0  0  0  0  0
  -10.0407    0.2931   -1.9275 H   0  0  0  0  0  0  0  0  0  0  0  0
   -8.5192   -1.5213   -0.6145 H   0  0  0  0  0  0  0  0  0  0  0  0
   -8.6470   -1.1981   -2.3641 H   0  0  0  0  0  0  0  0  0  0  0  0
   -6.8891   -2.7254   -1.8664 H   0  0  0  0  0  0  0  0  0  0  0  0
   -6.2041   -1.1657   -2.5609 H   0  0  0  0  0  0  0  0  0  0  0  0
   -5.5973   -3.6504   -0.4399 H   0  0  0  0  0  0  0  0  0  0  0  0
   -4.0256   -3.6022    1.4439 H   0  0  0  0  0  0  0  0  0  0  0  0
   -3.2917   -1.4247    2.3860 H   0  0  0  0  0  0  0  0  0  0  0  0
   -4.1742    0.7444    1.4511 H   0  0  0  0  0  0  0  0  0  0  0  0
   -3.1797    3.6332    0.8644 H   0  0  0  0  0  0  0  0  0  0  0  0
   -0.6941    3.4199    1.1596 H   0  0  0  0  0  0  0  0  0  0  0  0
    1.1522    0.5274   -1.7663 H   0  0  0  0  0  0  0  0  0  0  0  0
    3.5415    0.2668   -1.4219 H   0  0  0  0  0  0  0  0  0  0  0  0
    5.4937    1.9048    1.0902 H   0  0  0  0  0  0  0  0  0  0  0  0
    6.6245    1.2651    2.3204 H   0  0  0  0  0  0  0  0  0  0  0  0
    9.0003    1.6390    3.0081 H   0  0  0  0  0  0  0  0  0  0  0  0
   10.8037    0.5011    1.7555 H   0  0  0  0  0  0  0  0  0  0  0  0
   10.2813   -0.9747   -0.1504 H   0  0  0  0  0  0  0  0  0  0  0  0
    8.6533   -2.5347   -0.8074 H   0  0  0  0  0  0  0  0  0  0  0  0
    8.7541   -1.1952   -1.9845 H   0  0  0  0  0  0  0  0  0  0  0  0
    7.0168   -3.0151   -2.3322 H   0  0  0  0  0  0  0  0  0  0  0  0
    6.6176   -1.3230   -2.6059 H   0  0  0  0  0  0  0  0  0  0  0  0
    5.1783   -3.9335   -2.0287 H   0  0  0  0  0  0  0  0  0  0  0  0
    3.1148   -4.3959   -0.8826 H   0  0  0  0  0  0  0  0  0  0  0  0
    2.2800   -2.9090    0.8711 H   0  0  0  0  0  0  0  0  0  0  0  0
    3.6380   -0.9150    1.4897 H   0  0  0  0  0  0  0  0  0  0  0  0
    3.2443    2.0359    2.4188 H   0  0  0  0  0  0  0  0  0  0  0  0
    0.8323    2.3286    2.1056 H   0  0  0  0  0  0  0  0  0  0  0  0
   -0.7683   -0.1454   -1.2005 H   0  0  0  0  0  0  0  0  0  0  0  0
   -3.1721    0.0776   -1.4829 H   0  0  0  0  0  0  0  0  0  0  0  0
  1  2  2  3
  2  3  1  0
  3  4  2  0
  4  5  1  0
  5  6  2  0
  6  7  1  0
  7  8  2  0
  8  9  1  0
  9 10  1  0
 10 11  1  0
 11 12  2  0
 12 13  1  0
 13 14  2  0
 14 15  1  0
 15 16  2  0
  1 17  1  0
 17 18  2  0
 18 19  1  0
 19 20  2  0
 20 21  1  0
 21 22  2  0
 22 23  1  0
 23 24  2  0
 24 25  1  0
 25 26  2  3
 26 27  1  0
 27 28  2  0
 28 29  1  0
 29 30  2  0
 30 31  1  0
 31 32  2  0
 32 33  1  0
 33 34  1  0
 34 35  1  0
 35 36  2  0
 36 37  1  0
 37 38  2  0
 38 39  1  0
 39 40  2  0
 24 41  1  0
 41 42  2  0
 20 43  1  0
 43 44  2  0
 16  2  1  0
 44 17  1  0
  8  3  1  0
 16 11  1  0
 42 21  1  0
 40 26  1  0
 32 27  1  0
 40 35  1  0
  1 45  1  0
  4 46  1  0
  5 47  1  0
  6 48  1  0
  7 49  1  0
  9 50  1  0
  9 51  1  0
 10 52  1  0
 10 53  1  0
 12 54  1  0
 13 55  1  0
 14 56  1  0
 15 57  1  0
 18 58  1  0
 19 59  1  0
 22 60  1  0
 23 61  1  0
 25 62  1  0
 28 63  1  0
 29 64  1  0
 30 65  1  0
 31 66  1  0
 33 67  1  0
 33 68  1  0
 34 69  1  0
 34 70  1  0
 36 71  1  0
 37 72  1  0
 38 73  1  0
 39 74  1  0
 41 75  1  0
 42 76  1  0
 43 77  1  0
 44 78  1  0
M  END
