
     RDKit          3D

 52 58  0  0  0  0  0  0  0  0999 V2000
    5.1650    4.6918   -0.3757 F   0  0  0  0  0  0  0  0  0  0  0  0
    4.5375    3.4832   -0.2290 C   0  0  0  0  0  0  0  0  0  0  0  0
    3.4390    3.3387    0.5806 C   0  0  0  0  0  0  0  0  0  0  0  0
    2.8135    2.0918    0.7163 C   0  0  0  0  0  0  0  0  0  0  0  0
    3.2295    0.9586    0.0764 C   0  0  0  0  0  0  0  0  0  0  0  0
    2.5314   -0.3243    0.0866 C   0  0  0  0  0  0  0  0  0  0  0  0
    1.2572   -0.5792    0.2005 N   0  0  0  0  0  4  0  0  0  0  0  0
    1.0054   -1.9668    0.1668 C   0  0  0  0  0  0  0  0  0  0  0  0
   -0.1616   -2.5132    0.1488 N   0  0  0  0  0  0  0  0  0  0  0  0
   -1.3447   -1.6865    0.1561 C   0  0  0  0  0  0  0  0  0  0  0  0
   -2.6700   -2.0810    0.0193 C   0  0  0  0  0  0  0  0  0  0  0  0
   -3.2390   -3.3337   -0.0306 C   0  0  0  0  0  0  0  0  0  0  0  0
   -4.6067   -3.3952   -0.1352 C   0  0  0  0  0  0  0  0  0  0  0  0
   -5.3979   -2.2864   -0.1888 C   0  0  0  0  0  0  0  0  0  0  0  0
   -4.7792   -1.0277   -0.1347 C   0  0  0  0  0  0  0  0  0  0  0  0
   -3.3967   -0.9345   -0.0316 C   0  0  0  0  0  0  0  0  0  0  0  0
   -2.5281    0.1648    0.0703 C   0  0  0  0  0  0  0  0  0  0  0  0
   -2.9598    1.5478   -0.1184 C   0  0  0  0  0  0  0  0  0  0  0  0
   -4.0536    1.8552   -0.9356 C   0  0  0  0  0  0  0  0  0  0  0  0
   -4.5697    3.1237   -1.0723 C   0  0  0  0  0  0  0  0  0  0  0  0
   -4.0179    4.1817   -0.3949 C   0  0  0  0  0  0  0  0  0  0  0  0
   -4.5220    5.4523   -0.5218 F   0  0  0  0  0  0  0  0  0  0  0  0
   -2.9424    3.9258    0.4158 C   0  0  0  0  0  0  0  0  0  0  0  0
   -2.4296    2.6252    0.5451 C   0  0  0  0  0  0  0  0  0  0  0  0
   -1.2882   -0.3577    0.1887 N   0  0  0  0  0  0  0  0  0  0  0  0
    0.0580    0.3571    0.4079 B   0  0  0  0  0  4  0  0  0  0  0  0
    0.1710    1.5056   -0.4216 F   0  0  0  0  0  0  0  0  0  0  0  0
    0.0093    0.6854    1.8599 F   0  0  0  0  0  0  0  0  0  0  0  0
    2.3167   -2.6070    0.0309 C   0  0  0  0  0  0  0  0  0  0  0  0
    2.6969   -3.9386   -0.0209 C   0  0  0  0  0  0  0  0  0  0  0  0
    4.0175   -4.2920   -0.1170 C   0  0  0  0  0  0  0  0  0  0  0  0
    4.9477   -3.2945   -0.1592 C   0  0  0  0  0  0  0  0  0  0  0  0
    4.5925   -1.9624   -0.1086 C   0  0  0  0  0  0  0  0  0  0  0  0
    3.2515   -1.6232   -0.0143 C   0  0  0  0  0  0  0  0  0  0  0  0
    4.3551    1.1315   -0.7493 C   0  0  0  0  0  0  0  0  0  0  0  0
    4.9725    2.3610   -0.8811 C   0  0  0  0  0  0  0  0  0  0  0  0
    3.0710    4.2039    1.1072 H   0  0  0  0  0  0  0  0  0  0  0  0
    1.9898    2.0789    1.3816 H   0  0  0  0  0  0  0  0  0  0  0  0
   -2.6063   -4.2043    0.0133 H   0  0  0  0  0  0  0  0  0  0  0  0
   -5.0704   -4.3720   -0.1765 H   0  0  0  0  0  0  0  0  0  0  0  0
   -6.4846   -2.3190   -0.2714 H   0  0  0  0  0  0  0  0  0  0  0  0
   -5.4266   -0.1653   -0.1330 H   0  0  0  0  0  0  0  0  0  0  0  0
   -4.4765    1.0428   -1.5393 H   0  0  0  0  0  0  0  0  0  0  0  0
   -5.4171    3.3137   -1.7132 H   0  0  0  0  0  0  0  0  0  0  0  0
   -2.4970    4.7361    0.9515 H   0  0  0  0  0  0  0  0  0  0  0  0
   -1.5963    2.4998    1.2158 H   0  0  0  0  0  0  0  0  0  0  0  0
    1.8980   -4.6735    0.0188 H   0  0  0  0  0  0  0  0  0  0  0  0
    4.2666   -5.3450   -0.1554 H   0  0  0  0  0  0  0  0  0  0  0  0
    5.9899   -3.5855   -0.2347 H   0  0  0  0  0  0  0  0  0  0  0  0
    5.3787   -1.2070   -0.1002 H   0  0  0  0  0  0  0  0  0  0  0  0
    4.6883    0.2794   -1.3264 H   0  0  0  0  0  0  0  0  0  0  0  0
    5.8327    2.4397   -1.5243 H   0  0  0  0  0  0  0  0  0  0  0  0
  1  2  1  0
  2  3  2  0
  3  4  1  0
  4  5  2  0
  5  6  1  0
  6  7  2  0
  7  8  1  0
  8  9  2  0
  9 10  1  0
 10 11  2  0
 11 12  1  0
 12 13  2  0
 13 14  1  0
 14 15  2  0
 15 16  1  0
 16 17  2  0
 17 18  1  0
 18 19  2  0
 19 20  1  0
 20 21  2  0
 21 22  1  0
 21 23  1  0
 23 24  2  0
 17 25  1  0
 25 26  1  0
 26 27  1  0
 26 28  1  0
  8 29  1  0
 29 30  2  0
 30 31  1  0
 31 32  2  0
 32 33  1  0
 33 34  2  0
  5 35  1  0
 35 36  2  0
 36  2  1  0
 34  6  1  0
 26  7  1  0
 34 29  1  0
 25 10  1  0
 16 11  1  0
 24 18  1  0
  3 37  1  0
  4 38  1  0
 12 39  1  0
 13 40  1  0
 14 41  1  0
 15 42  1  0
 19 43  1  0
 20 44  1  0
 23 45  1  0
 24 46  1  0
 30 47  1  0
 31 48  1  0
 32 49  1  0
 33 50  1  0
 35 51  1  0
 36 52  1  0
M  CHG  2   7   1  26  -1
M  END
