
     RDKit          3D

 33 36  0  0  0  0  0  0  0  0999 V2000
    1.3229    1.9989    1.8209 O   0  0  0  0  0  0  0  0  0  0  0  0
    0.8527    1.1252    1.0368 C   0  0  0  0  0  0  0  0  0  0  0  0
   -0.5118    1.0018    0.8549 O   0  0  0  0  0  0  0  0  0  0  0  0
   -0.6735   -0.0506   -0.0675 C   0  0  0  0  0  0  0  0  0  0  0  0
   -1.8799   -0.4205   -0.4559 C   0  0  0  0  0  0  0  0  0  0  0  0
   -2.1667   -1.4852   -1.3977 C   0  0  0  0  0  0  0  0  0  0  0  0
   -1.3928   -2.2192   -2.0093 O   0  0  0  0  0  0  0  0  0  0  0  0
   -3.5668   -1.5270   -1.4895 O   0  0  0  0  0  0  0  0  0  0  0  0
   -4.1317   -0.5612   -0.6694 C   0  0  0  0  0  0  0  0  0  0  0  0
   -5.4591   -0.2487   -0.4499 C   0  0  0  0  0  0  0  0  0  0  0  0
   -5.7525    0.7708    0.4244 C   0  0  0  0  0  0  0  0  0  0  0  0
   -4.7840    1.4931    1.0906 C   0  0  0  0  0  0  0  0  0  0  0  0
   -3.4408    1.1784    0.8712 C   0  0  0  0  0  0  0  0  0  0  0  0
   -3.1686    0.1524   -0.0090 C   0  0  0  0  0  0  0  0  0  0  0  0
    0.6459   -0.5379   -0.4156 C   0  0  0  0  0  0  0  0  0  0  0  0
    0.8640   -1.5994   -1.3161 O   0  0  0  0  0  0  0  0  0  0  0  0
    1.5760    0.1469    0.2268 C   0  0  0  0  0  0  0  0  0  0  0  0
    3.0031    0.0153    0.1353 C   0  0  0  0  0  0  0  0  0  0  0  0
    3.8477    1.0148    0.6141 C   0  0  0  0  0  0  0  0  0  0  0  0
    5.2299    0.9263    0.5222 C   0  0  0  0  0  0  0  0  0  0  0  0
    5.8226   -0.1527   -0.0467 C   0  0  0  0  0  0  0  0  0  0  0  0
    5.0392   -1.1588   -0.5318 C   0  0  0  0  0  0  0  0  0  0  0  0
    3.6456   -1.0562   -0.4315 C   0  0  0  0  0  0  0  0  0  0  0  0
   -6.2533   -0.8056   -0.9619 H   0  0  0  0  0  0  0  0  0  0  0  0
   -6.8021    1.0291    0.6072 H   0  0  0  0  0  0  0  0  0  0  0  0
   -4.9897    2.2968    1.7767 H   0  0  0  0  0  0  0  0  0  0  0  0
   -2.6844    1.7493    1.3980 H   0  0  0  0  0  0  0  0  0  0  0  0
    0.9556   -2.5544   -0.9599 H   0  0  0  0  0  0  0  0  0  0  0  0
    3.4765    1.8961    1.0721 H   0  0  0  0  0  0  0  0  0  0  0  0
    5.8789    1.7134    0.9051 H   0  0  0  0  0  0  0  0  0  0  0  0
    6.9087   -0.2304   -0.1219 H   0  0  0  0  0  0  0  0  0  0  0  0
    5.4694   -2.0197   -0.9904 H   0  0  0  0  0  0  0  0  0  0  0  0
    3.1191   -1.8812   -0.8382 H   0  0  0  0  0  0  0  0  0  0  0  0
  1  2  2  0
  2  3  1  0
  3  4  1  0
  4  5  2  0
  5  6  1  0
  6  7  2  0
  6  8  1  0
  8  9  1  0
  9 10  2  0
 10 11  1  0
 11 12  2  0
 12 13  1  0
 13 14  2  0
  4 15  1  0
 15 16  1  0
 15 17  2  0
 17 18  1  0
 18 19  2  0
 19 20  1  0
 20 21  2  0
 21 22  1  0
 22 23  2  0
 17  2  1  0
 23 18  1  0
 14  5  1  0
 14  9  1  0
 10 24  1  0
 11 25  1  0
 12 26  1  0
 13 27  1  0
 16 28  1  0
 19 29  1  0
 20 30  1  0
 21 31  1  0
 22 32  1  0
 23 33  1  0
M  END
