
     RDKit          3D

 28 31  0  0  0  0  0  0  0  0999 V2000
   -3.8805   -0.6633   -0.0739 N   0  0  0  0  0  0  0  0  0  0  0  0
   -2.7031    0.1216    0.0237 C   0  0  0  0  0  0  0  0  0  0  0  0
   -2.7925    1.4919    0.1972 C   0  0  0  0  0  0  0  0  0  0  0  0
   -1.6517    2.2735    0.2944 C   0  0  0  0  0  0  0  0  0  0  0  0
   -0.3873    1.7376    0.2248 C   0  0  0  0  0  0  0  0  0  0  0  0
    0.7404    2.5341    0.3239 C   0  0  0  0  0  0  0  0  0  0  0  0
    2.0074    1.9720    0.2509 C   0  0  0  0  0  0  0  0  0  0  0  0
    2.0889    0.5949    0.0766 C   0  0  0  0  0  0  0  0  0  0  0  0
    3.3159    0.0029   -0.0001 C   0  0  0  0  0  0  0  0  0  0  0  0
    3.4657   -1.3536   -0.1720 C   0  0  0  0  0  0  0  0  0  0  0  0
    2.3479   -2.1305   -0.2686 C   0  0  0  0  0  0  0  0  0  0  0  0
    1.0991   -1.5417   -0.1923 C   0  0  0  0  0  0  0  0  0  0  0  0
   -0.0327   -2.3545   -0.2935 C   0  0  0  0  0  0  0  0  0  0  0  0
   -1.2903   -1.7918   -0.2204 C   0  0  0  0  0  0  0  0  0  0  0  0
   -1.4272   -0.4198   -0.0467 C   0  0  0  0  0  0  0  0  0  0  0  0
   -0.3015    0.3706    0.0517 C   0  0  0  0  0  0  0  0  0  0  0  0
    0.9550   -0.1820   -0.0201 C   0  0  0  0  0  0  0  0  0  0  0  0
   -4.1172   -1.0221   -1.0442 H   0  0  0  0  0  0  0  0  0  0  0  0
   -4.5070   -0.9066    0.6992 H   0  0  0  0  0  0  0  0  0  0  0  0
   -3.7847    1.9426    0.2557 H   0  0  0  0  0  0  0  0  0  0  0  0
   -1.7687    3.3526    0.4311 H   0  0  0  0  0  0  0  0  0  0  0  0
    0.6874    3.6032    0.4592 H   0  0  0  0  0  0  0  0  0  0  0  0
    2.8949    2.5909    0.3279 H   0  0  0  0  0  0  0  0  0  0  0  0
    4.2034    0.6246    0.0772 H   0  0  0  0  0  0  0  0  0  0  0  0
    4.4609   -1.8197   -0.2324 H   0  0  0  0  0  0  0  0  0  0  0  0
    2.4564   -3.2114   -0.4055 H   0  0  0  0  0  0  0  0  0  0  0  0
    0.1141   -3.4156   -0.4280 H   0  0  0  0  0  0  0  0  0  0  0  0
   -2.1929   -2.4004   -0.2961 H   0  0  0  0  0  0  0  0  0  0  0  0
  1  2  1  0
  2  3  2  0
  3  4  1  0
  4  5  2  0
  5  6  1  0
  6  7  2  0
  7  8  1  0
  8  9  2  0
  9 10  1  0
 10 11  2  0
 11 12  1  0
 12 13  2  0
 13 14  1  0
 14 15  2  0
 15 16  1  0
 16 17  2  0
 15  2  1  0
 16  5  1  0
 17  8  1  0
 17 12  1  0
  1 18  1  0
  1 19  1  0
  3 20  1  0
  4 21  1  0
  6 22  1  0
  7 23  1  0
  9 24  1  0
 10 25  1  0
 11 26  1  0
 13 27  1  0
 14 28  1  0
M  END
