
     RDKit          3D

 31 31  0  0  0  0  0  0  0  0999 V2000
    5.0560    1.5929    0.2649 C   0  0  0  0  0  0  0  0  0  0  0  0
    3.5874    1.7931    0.5681 C   0  0  0  0  0  0  0  0  0  0  0  0
    2.8644    0.6773    0.0858 O   0  0  0  0  0  0  0  0  0  0  0  0
    1.4656    0.5981    0.2341 C   0  0  0  0  0  0  0  0  0  0  0  0
    0.9773    1.5750    0.8084 O   0  0  0  0  0  0  0  0  0  0  0  0
    0.7257   -0.5896   -0.2834 C   0  0  0  0  0  0  0  0  0  0  0  0
    1.4475   -1.6071   -0.9104 C   0  0  0  0  0  0  0  0  0  0  0  0
    2.8662   -1.6757   -1.1382 N   0  0  0  0  0  0  0  0  0  0  0  0
    0.2793   -2.7326   -1.3375 S   0  0  0  0  0  0  0  0  0  0  0  0
   -1.1008   -1.9512   -0.7441 C   0  0  0  0  0  0  0  0  0  0  0  0
   -2.4769   -2.3811   -0.7813 N   0  0  0  0  0  0  0  0  0  0  0  0
   -0.6032   -0.7680   -0.1962 C   0  0  0  0  0  0  0  0  0  0  0  0
   -1.5891    0.1693    0.4246 C   0  0  0  0  0  0  0  0  0  0  0  0
   -1.2882    1.2466    0.9441 O   0  0  0  0  0  0  0  0  0  0  0  0
   -2.9511   -0.1396    0.4479 O   0  0  0  0  0  0  0  0  0  0  0  0
   -3.8529    0.7695    1.0423 C   0  0  0  0  0  0  0  0  0  0  0  0
   -5.2417    0.1390    0.9014 C   0  0  0  0  0  0  0  0  0  0  0  0
    5.2058    0.7129   -0.4254 H   0  0  0  0  0  0  0  0  0  0  0  0
    5.5147    2.4526   -0.2417 H   0  0  0  0  0  0  0  0  0  0  0  0
    5.6425    1.3332    1.1796 H   0  0  0  0  0  0  0  0  0  0  0  0
    3.2659    2.7251    0.0532 H   0  0  0  0  0  0  0  0  0  0  0  0
    3.4433    1.9484    1.6624 H   0  0  0  0  0  0  0  0  0  0  0  0
    3.5287   -1.6146   -0.3651 H   0  0  0  0  0  0  0  0  0  0  0  0
    3.2049   -1.7891   -2.1100 H   0  0  0  0  0  0  0  0  0  0  0  0
   -3.1556   -1.9148   -1.3992 H   0  0  0  0  0  0  0  0  0  0  0  0
   -2.7755   -3.1614   -0.1821 H   0  0  0  0  0  0  0  0  0  0  0  0
   -3.6018    0.9836    2.0893 H   0  0  0  0  0  0  0  0  0  0  0  0
   -3.8722    1.7452    0.5067 H   0  0  0  0  0  0  0  0  0  0  0  0
   -5.2879   -0.6675    1.6612 H   0  0  0  0  0  0  0  0  0  0  0  0
   -6.0352    0.8779    1.0080 H   0  0  0  0  0  0  0  0  0  0  0  0
   -5.2432   -0.3477   -0.1125 H   0  0  0  0  0  0  0  0  0  0  0  0
  1  2  1  0
  2  3  1  0
  3  4  1  0
  4  5  2  0
  4  6  1  0
  6  7  2  0
  7  8  1  0
  7  9  1  0
  9 10  1  0
 10 11  1  0
 10 12  2  0
 12 13  1  0
 13 14  2  0
 13 15  1  0
 15 16  1  0
 16 17  1  0
 12  6  1  0
  1 18  1  0
  1 19  1  0
  1 20  1  0
  2 21  1  0
  2 22  1  0
  8 23  1  0
  8 24  1  0
 11 25  1  0
 11 26  1  0
 16 27  1  0
 16 28  1  0
 17 29  1  0
 17 30  1  0
 17 31  1  0
M  END
