
     RDKit          3D

 76 79  0  0  0  0  0  0  0  0999 V2000
    9.5382    2.7288   -0.7415 C   0  0  0  0  0  0  0  0  0  0  0  0
    8.3311    2.4966    0.1251 C   0  0  0  0  0  0  0  0  0  0  0  0
    8.4810    1.1717    0.8200 C   0  0  0  0  0  0  0  0  0  0  0  0
    7.3624    0.8225    1.7358 C   0  0  0  0  0  0  0  0  0  0  0  0
    6.0069    0.7089    1.1483 C   0  0  0  0  0  0  0  0  0  0  0  0
    5.8400   -0.3466    0.1106 C   0  0  0  0  0  0  0  0  0  0  0  0
    4.3813   -0.2781   -0.3165 C   0  0  0  0  0  0  0  0  0  0  0  0
    3.8087    0.3911   -1.3401 C   0  0  0  0  0  0  0  0  0  0  0  0
    2.4489    0.3247   -1.5372 C   0  0  0  0  0  0  0  0  0  0  0  0
    1.5988    0.8889   -2.5175 C   0  0  0  0  0  0  0  0  0  0  0  0
    1.8317    1.7775   -3.4770 C   0  0  0  0  0  0  0  0  0  0  0  0
    3.0875    2.3469   -3.6610 C   0  0  0  0  0  0  0  0  0  0  0  0
    4.1465    2.8475   -3.8158 N   0  0  0  0  0  0  0  0  0  0  0  0
    0.7403    2.1473   -4.4062 C   0  0  0  0  0  0  0  0  0  0  0  0
    0.9291    3.0093   -5.3127 O   0  0  0  0  0  0  0  0  0  0  0  0
   -0.4679    1.5405   -4.2700 O   0  0  0  0  0  0  0  0  0  0  0  0
   -1.5944    1.7761   -5.0866 C   0  0  0  0  0  0  0  0  0  0  0  0
    0.0429    0.3238   -2.1139 S   0  0  0  0  0  0  0  0  0  0  0  0
    0.4299   -0.5897   -0.7548 C   0  0  0  0  0  0  0  0  0  0  0  0
   -0.3912   -1.1845    0.1118 C   0  0  0  0  0  0  0  0  0  0  0  0
    0.0274   -2.1009    1.4601 S   0  0  0  0  0  0  0  0  0  0  0  0
   -1.5392   -2.2834    2.1641 C   0  0  0  0  0  0  0  0  0  0  0  0
   -1.7916   -2.9440    3.2781 C   0  0  0  0  0  0  0  0  0  0  0  0
   -3.0992   -3.0453    3.8017 C   0  0  0  0  0  0  0  0  0  0  0  0
   -4.1650   -3.1245    4.2500 N   0  0  0  0  0  0  0  0  0  0  0  0
   -0.6831   -3.5955    3.9584 C   0  0  0  0  0  0  0  0  0  0  0  0
   -0.7491   -4.2301    5.0271 O   0  0  0  0  0  0  0  0  0  0  0  0
    0.6014   -3.5270    3.3845 O   0  0  0  0  0  0  0  0  0  0  0  0
    1.7255   -4.1509    4.0317 C   0  0  0  0  0  0  0  0  0  0  0  0
   -2.3855   -1.5870    1.2717 C   0  0  0  0  0  0  0  0  0  0  0  0
   -3.7413   -1.3576    1.2903 C   0  0  0  0  0  0  0  0  0  0  0  0
   -4.3194   -0.6427    0.3000 C   0  0  0  0  0  0  0  0  0  0  0  0
   -5.7533   -0.2091    0.0783 C   0  0  0  0  0  0  0  0  0  0  0  0
   -6.5423   -1.1939   -0.6878 C   0  0  0  0  0  0  0  0  0  0  0  0
   -7.9065   -0.7315   -1.0185 C   0  0  0  0  0  0  0  0  0  0  0  0
   -8.9028   -0.4012   -0.0065 C   0  0  0  0  0  0  0  0  0  0  0  0
   -8.6762    0.7198    0.9444 C   0  0  0  0  0  0  0  0  0  0  0  0
   -8.4136    2.0508    0.2644 C   0  0  0  0  0  0  0  0  0  0  0  0
   -2.9906   -0.2587   -0.6866 S   0  0  0  0  0  0  0  0  0  0  0  0
   -1.7469   -1.0432    0.2308 C   0  0  0  0  0  0  0  0  0  0  0  0
    1.7908   -0.4410   -0.6442 C   0  0  0  0  0  0  0  0  0  0  0  0
    3.0458   -1.0283    0.4116 S   0  0  0  0  0  0  0  0  0  0  0  0
   10.2105    3.5138   -0.2690 H   0  0  0  0  0  0  0  0  0  0  0  0
    9.3086    3.0181   -1.7787 H   0  0  0  0  0  0  0  0  0  0  0  0
   10.1316    1.7847   -0.7595 H   0  0  0  0  0  0  0  0  0  0  0  0
    7.4268    2.5317   -0.5184 H   0  0  0  0  0  0  0  0  0  0  0  0
    8.2918    3.2912    0.8931 H   0  0  0  0  0  0  0  0  0  0  0  0
    9.4155    1.2374    1.4375 H   0  0  0  0  0  0  0  0  0  0  0  0
    8.6987    0.3389    0.0913 H   0  0  0  0  0  0  0  0  0  0  0  0
    7.3613    1.5700    2.5841 H   0  0  0  0  0  0  0  0  0  0  0  0
    7.6549   -0.1347    2.2422 H   0  0  0  0  0  0  0  0  0  0  0  0
    5.7210    1.7073    0.7244 H   0  0  0  0  0  0  0  0  0  0  0  0
    5.2917    0.5702    2.0093 H   0  0  0  0  0  0  0  0  0  0  0  0
    5.9759   -1.3711    0.4872 H   0  0  0  0  0  0  0  0  0  0  0  0
    6.4858   -0.1866   -0.7682 H   0  0  0  0  0  0  0  0  0  0  0  0
    4.5166    0.9788   -1.9939 H   0  0  0  0  0  0  0  0  0  0  0  0
   -2.1698    2.6681   -4.8687 H   0  0  0  0  0  0  0  0  0  0  0  0
   -1.2261    1.7534   -6.1521 H   0  0  0  0  0  0  0  0  0  0  0  0
   -2.2536    0.8694   -4.9958 H   0  0  0  0  0  0  0  0  0  0  0  0
    1.8822   -3.7712    5.0401 H   0  0  0  0  0  0  0  0  0  0  0  0
    1.4749   -5.2458    4.0387 H   0  0  0  0  0  0  0  0  0  0  0  0
    2.5827   -4.0278    3.3403 H   0  0  0  0  0  0  0  0  0  0  0  0
   -4.4559   -1.7240    2.0842 H   0  0  0  0  0  0  0  0  0  0  0  0
   -5.7426    0.8068   -0.3515 H   0  0  0  0  0  0  0  0  0  0  0  0
   -6.1753   -0.1179    1.1107 H   0  0  0  0  0  0  0  0  0  0  0  0
   -6.6720   -2.1168   -0.0172 H   0  0  0  0  0  0  0  0  0  0  0  0
   -5.9940   -1.5872   -1.5911 H   0  0  0  0  0  0  0  0  0  0  0  0
   -7.7843    0.2376   -1.6500 H   0  0  0  0  0  0  0  0  0  0  0  0
   -8.3315   -1.4433   -1.8001 H   0  0  0  0  0  0  0  0  0  0  0  0
   -9.1941   -1.3163    0.6217 H   0  0  0  0  0  0  0  0  0  0  0  0
   -9.8856   -0.1994   -0.5445 H   0  0  0  0  0  0  0  0  0  0  0  0
   -9.7325    0.8689    1.4269 H   0  0  0  0  0  0  0  0  0  0  0  0
   -8.0569    0.5169    1.8011 H   0  0  0  0  0  0  0  0  0  0  0  0
   -8.5727    1.9235   -0.8063 H   0  0  0  0  0  0  0  0  0  0  0  0
   -9.1153    2.8493    0.6162 H   0  0  0  0  0  0  0  0  0  0  0  0
   -7.4053    2.4284    0.5116 H   0  0  0  0  0  0  0  0  0  0  0  0
  1  2  1  0
  2  3  1  0
  3  4  1  0
  4  5  1  0
  5  6  1  0
  6  7  1  0
  7  8  2  0
  8  9  1  0
  9 10  1  0
 10 11  2  0
 11 12  1  0
 12 13  3  0
 11 14  1  0
 14 15  2  0
 14 16  1  0
 16 17  1  0
 10 18  1  0
 18 19  1  0
 19 20  2  0
 20 21  1  0
 21 22  1  0
 22 23  2  0
 23 24  1  0
 24 25  3  0
 23 26  1  0
 26 27  2  0
 26 28  1  0
 28 29  1  0
 22 30  1  0
 30 31  1  0
 31 32  2  0
 32 33  1  0
 33 34  1  0
 34 35  1  0
 35 36  1  0
 36 37  1  0
 37 38  1  0
 32 39  1  0
 39 40  1  0
 19 41  1  0
 41 42  1  0
 42  7  1  0
 41  9  2  0
 40 20  1  0
 40 30  2  0
  1 43  1  0
  1 44  1  0
  1 45  1  0
  2 46  1  0
  2 47  1  0
  3 48  1  0
  3 49  1  0
  4 50  1  0
  4 51  1  0
  5 52  1  0
  5 53  1  0
  6 54  1  0
  6 55  1  0
  8 56  1  0
 17 57  1  0
 17 58  1  0
 17 59  1  0
 29 60  1  0
 29 61  1  0
 29 62  1  0
 31 63  1  0
 33 64  1  0
 33 65  1  0
 34 66  1  0
 34 67  1  0
 35 68  1  0
 35 69  1  0
 36 70  1  0
 36 71  1  0
 37 72  1  0
 37 73  1  0
 38 74  1  0
 38 75  1  0
 38 76  1  0
M  END
