
     RDKit          3D

 34 37  0  0  0  0  0  0  0  0999 V2000
    6.0887   -0.9943    0.2307 Cl  0  0  0  0  0  0  0  0  0  0  0  0
    4.3476   -0.7004    0.1127 C   0  0  0  0  0  0  0  0  0  0  0  0
    3.7884   -0.3617   -1.0890 C   0  0  0  0  0  0  0  0  0  0  0  0
    2.4228   -0.1319   -1.1779 C   0  0  0  0  0  0  0  0  0  0  0  0
    1.7561    0.2986   -2.7374 Cl  0  0  0  0  0  0  0  0  0  0  0  0
    1.6057   -0.2317   -0.1006 C   0  0  0  0  0  0  0  0  0  0  0  0
    0.1010    0.0270   -0.2249 B   0  0  0  0  0  0  0  0  0  0  0  0
   -0.9260   -1.1657   -0.3165 C   0  0  0  0  0  0  0  0  0  0  0  0
   -0.4739   -2.4438   -0.5783 C   0  0  0  0  0  0  0  0  0  0  0  0
   -1.4011   -3.4584   -0.6505 C   0  0  0  0  0  0  0  0  0  0  0  0
   -2.7514   -3.2698   -0.4765 C   0  0  0  0  0  0  0  0  0  0  0  0
   -3.1683   -1.9834   -0.2169 C   0  0  0  0  0  0  0  0  0  0  0  0
   -2.2697   -0.9152   -0.1327 C   0  0  0  0  0  0  0  0  0  0  0  0
   -2.7205    0.3970    0.1348 N   0  0  0  0  0  0  0  0  0  0  0  0
   -1.8603    1.5303    0.2340 C   0  0  0  0  0  0  0  0  0  0  0  0
   -2.3701    2.8005    0.5006 C   0  0  0  0  0  0  0  0  0  0  0  0
   -1.5696    3.9012    0.6006 C   0  0  0  0  0  0  0  0  0  0  0  0
   -0.2125    3.8056    0.4414 C   0  0  0  0  0  0  0  0  0  0  0  0
    0.3110    2.5589    0.1773 C   0  0  0  0  0  0  0  0  0  0  0  0
   -0.4946    1.4337    0.0737 C   0  0  0  0  0  0  0  0  0  0  0  0
    2.1509   -0.5719    1.1184 C   0  0  0  0  0  0  0  0  0  0  0  0
    1.1931   -0.7287    2.5705 Cl  0  0  0  0  0  0  0  0  0  0  0  0
    3.5246   -0.8062    1.2229 C   0  0  0  0  0  0  0  0  0  0  0  0
    4.4507   -0.2829   -1.9520 H   0  0  0  0  0  0  0  0  0  0  0  0
    0.5813   -2.6110   -0.7177 H   0  0  0  0  0  0  0  0  0  0  0  0
   -1.0343   -4.4731   -0.8593 H   0  0  0  0  0  0  0  0  0  0  0  0
   -3.4362   -4.1090   -0.5448 H   0  0  0  0  0  0  0  0  0  0  0  0
   -4.2269   -1.8141   -0.0769 H   0  0  0  0  0  0  0  0  0  0  0  0
   -3.7537    0.5295    0.2660 H   0  0  0  0  0  0  0  0  0  0  0  0
   -3.4332    2.8922    0.6281 H   0  0  0  0  0  0  0  0  0  0  0  0
   -1.9812    4.8829    0.8086 H   0  0  0  0  0  0  0  0  0  0  0  0
    0.4219    4.6748    0.5202 H   0  0  0  0  0  0  0  0  0  0  0  0
    1.3675    2.3960    0.0385 H   0  0  0  0  0  0  0  0  0  0  0  0
    3.9721   -1.0749    2.1731 H   0  0  0  0  0  0  0  0  0  0  0  0
  1  2  1  0
  2  3  2  0
  3  4  1  0
  4  5  1  0
  4  6  2  0
  6  7  1  0
  7  8  1  0
  8  9  2  0
  9 10  1  0
 10 11  2  0
 11 12  1  0
 12 13  2  0
 13 14  1  0
 14 15  1  0
 15 16  2  0
 16 17  1  0
 17 18  2  0
 18 19  1  0
 19 20  2  0
  6 21  1  0
 21 22  1  0
 21 23  2  0
 23  2  1  0
 20  7  1  0
 13  8  1  0
 20 15  1  0
  3 24  1  0
  9 25  1  0
 10 26  1  0
 11 27  1  0
 12 28  1  0
 14 29  1  0
 16 30  1  0
 17 31  1  0
 18 32  1  0
 19 33  1  0
 23 34  1  0
M  END
