
     RDKit          3D

 81 91  0  0  0  0  0  0  0  0999 V2000
    6.5400    4.7287   -2.8368 C   0  0  0  0  0  0  0  0  0  0  0  0
    5.2299    4.5740   -2.4196 C   0  0  0  0  0  0  0  0  0  0  0  0
    4.9183    3.4186   -1.6934 C   0  0  0  0  0  0  0  0  0  0  0  0
    5.8541    2.4637   -1.3942 C   0  0  0  0  0  0  0  0  0  0  0  0
    5.4647    1.2848   -0.6348 C   0  0  0  0  0  0  0  0  0  0  0  0
    6.3835    0.3449   -0.3421 N   0  0  0  0  0  0  0  0  0  0  0  0
    6.0479   -0.7546    0.3597 C   0  0  0  0  0  0  0  0  0  0  0  0
    7.0539   -1.7621    0.6673 C   0  0  0  0  0  0  0  0  0  0  0  0
    8.3567   -1.5861    0.2342 C   0  0  0  0  0  0  0  0  0  0  0  0
    9.3270   -2.5411    0.5211 C   0  0  0  0  0  0  0  0  0  0  0  0
    8.9525   -3.6607    1.2456 C   0  0  0  0  0  0  0  0  0  0  0  0
    7.6579   -3.8610    1.6902 C   0  0  0  0  0  0  0  0  0  0  0  0
    6.7338   -2.8927    1.3839 C   0  0  0  0  0  0  0  0  0  0  0  0
    4.7759   -0.9045    0.7677 N   0  0  0  0  0  0  0  0  0  0  0  0
    3.8161    0.0254    0.4910 C   0  0  0  0  0  0  0  0  0  0  0  0
    2.4443   -0.1453    0.9358 C   0  0  0  0  0  0  0  0  0  0  0  0
    2.0087   -1.2228    1.6504 C   0  0  0  0  0  0  0  0  0  0  0  0
    0.6990   -1.3767    2.0695 C   0  0  0  0  0  0  0  0  0  0  0  0
   -0.2123   -0.3973    1.7521 C   0  0  0  0  0  0  0  0  0  0  0  0
   -1.5672   -0.5214    2.1653 N   0  0  0  0  0  0  0  0  0  0  0  0
   -1.9727   -0.7792    3.4185 C   0  0  0  0  0  0  0  0  0  0  0  0
   -1.2934   -0.9926    4.6225 C   0  0  0  0  0  0  0  0  0  0  0  0
   -2.0582   -1.2362    5.7432 C   0  0  0  0  0  0  0  0  0  0  0  0
   -3.4344   -1.2727    5.7032 C   0  0  0  0  0  0  0  0  0  0  0  0
   -4.0912   -1.0603    4.5079 C   0  0  0  0  0  0  0  0  0  0  0  0
   -3.3515   -0.8142    3.3703 C   0  0  0  0  0  0  0  0  0  0  0  0
   -3.7362   -0.5724    2.0686 C   0  0  0  0  0  0  0  0  0  0  0  0
   -4.9829   -0.4899    1.4403 C   0  0  0  0  0  0  0  0  0  0  0  0
   -5.0260   -0.2278    0.0902 C   0  0  0  0  0  0  0  0  0  0  0  0
   -3.8680   -0.0452   -0.6536 C   0  0  0  0  0  0  0  0  0  0  0  0
   -2.6558   -0.1224   -0.0582 C   0  0  0  0  0  0  0  0  0  0  0  0
   -2.6035   -0.3884    1.3132 C   0  0  0  0  0  0  0  0  0  0  0  0
   -4.0667    0.2352   -2.1282 C   0  0  0  0  0  0  0  0  0  0  0  0
   -5.0327    1.3975   -2.1076 C   0  0  0  0  0  0  0  0  0  0  0  0
   -4.7876    2.5602   -2.7921 C   0  0  0  0  0  0  0  0  0  0  0  0
   -5.7461    3.5542   -2.6995 C   0  0  0  0  0  0  0  0  0  0  0  0
   -6.8953    3.3775   -1.9501 C   0  0  0  0  0  0  0  0  0  0  0  0
   -7.1200    2.1869   -1.2644 C   0  0  0  0  0  0  0  0  0  0  0  0
   -6.1784    1.2115   -1.3559 C   0  0  0  0  0  0  0  0  0  0  0  0
   -6.3129   -0.1226   -0.6537 C   0  0  0  0  0  0  0  0  0  0  0  0
   -6.1035   -1.0892   -1.8020 C   0  0  0  0  0  0  0  0  0  0  0  0
   -6.9833   -2.0818   -2.0868 C   0  0  0  0  0  0  0  0  0  0  0  0
   -6.7323   -2.9240   -3.1434 C   0  0  0  0  0  0  0  0  0  0  0  0
   -5.5877   -2.7274   -3.8795 C   0  0  0  0  0  0  0  0  0  0  0  0
   -4.6803   -1.7271   -3.6094 C   0  0  0  0  0  0  0  0  0  0  0  0
   -4.9557   -0.9025   -2.5509 C   0  0  0  0  0  0  0  0  0  0  0  0
    0.2166    0.6923    1.0324 C   0  0  0  0  0  0  0  0  0  0  0  0
    1.5153    0.8227    0.6293 C   0  0  0  0  0  0  0  0  0  0  0  0
    4.2069    1.0905   -0.2055 N   0  0  0  0  0  0  0  0  0  0  0  0
    7.1413    2.6667   -1.8326 C   0  0  0  0  0  0  0  0  0  0  0  0
    7.5045    3.7928   -2.5555 C   0  0  0  0  0  0  0  0  0  0  0  0
    6.7744    5.6342   -3.4034 H   0  0  0  0  0  0  0  0  0  0  0  0
    4.4937    5.3152   -2.6495 H   0  0  0  0  0  0  0  0  0  0  0  0
    3.9040    3.2529   -1.3446 H   0  0  0  0  0  0  0  0  0  0  0  0
    8.6230   -0.7000   -0.3312 H   0  0  0  0  0  0  0  0  0  0  0  0
   10.3531   -2.4351    0.1982 H   0  0  0  0  0  0  0  0  0  0  0  0
    9.6989   -4.4070    1.4727 H   0  0  0  0  0  0  0  0  0  0  0  0
    7.3590   -4.7379    2.2590 H   0  0  0  0  0  0  0  0  0  0  0  0
    5.7078   -3.0198    1.7188 H   0  0  0  0  0  0  0  0  0  0  0  0
    2.7114   -2.0109    1.9137 H   0  0  0  0  0  0  0  0  0  0  0  0
    0.4031   -2.2722    2.6467 H   0  0  0  0  0  0  0  0  0  0  0  0
   -0.2152   -0.9603    4.6334 H   0  0  0  0  0  0  0  0  0  0  0  0
   -1.5872   -1.4086    6.7040 H   0  0  0  0  0  0  0  0  0  0  0  0
   -4.0333   -1.4636    6.5822 H   0  0  0  0  0  0  0  0  0  0  0  0
   -5.1871   -1.0820    4.4372 H   0  0  0  0  0  0  0  0  0  0  0  0
   -5.8723   -0.6319    2.0217 H   0  0  0  0  0  0  0  0  0  0  0  0
   -1.7594    0.0198   -0.6378 H   0  0  0  0  0  0  0  0  0  0  0  0
   -3.1829    0.3778   -2.6901 H   0  0  0  0  0  0  0  0  0  0  0  0
   -3.8825    2.6598   -3.3641 H   0  0  0  0  0  0  0  0  0  0  0  0
   -5.5625    4.4769   -3.2364 H   0  0  0  0  0  0  0  0  0  0  0  0
   -7.6225    4.1813   -1.9029 H   0  0  0  0  0  0  0  0  0  0  0  0
   -8.0164    2.0239   -0.6684 H   0  0  0  0  0  0  0  0  0  0  0  0
   -7.2058   -0.2586   -0.1041 H   0  0  0  0  0  0  0  0  0  0  0  0
   -7.8663   -2.1876   -1.4723 H   0  0  0  0  0  0  0  0  0  0  0  0
   -7.4285   -3.7309   -3.3907 H   0  0  0  0  0  0  0  0  0  0  0  0
   -5.3888   -3.4025   -4.7245 H   0  0  0  0  0  0  0  0  0  0  0  0
   -3.7711   -1.5647   -4.1878 H   0  0  0  0  0  0  0  0  0  0  0  0
   -0.4686    1.5092    0.7487 H   0  0  0  0  0  0  0  0  0  0  0  0
    1.8143    1.7039    0.0594 H   0  0  0  0  0  0  0  0  0  0  0  0
    7.8882    1.9181   -1.6012 H   0  0  0  0  0  0  0  0  0  0  0  0
    8.5062    3.9746   -2.9099 H   0  0  0  0  0  0  0  0  0  0  0  0
  1  2  2  0
  2  3  1  0
  3  4  2  0
  4  5  1  0
  5  6  2  0
  6  7  1  0
  7  8  1  0
  8  9  2  0
  9 10  1  0
 10 11  2  0
 11 12  1  0
 12 13  2  0
  7 14  2  0
 14 15  1  0
 15 16  1  0
 16 17  2  0
 17 18  1  0
 18 19  2  0
 19 20  1  0
 20 21  1  0
 21 22  2  0
 22 23  1  0
 23 24  2  0
 24 25  1  0
 25 26  2  0
 26 27  1  0
 27 28  2  0
 28 29  1  0
 29 30  2  0
 30 31  1  0
 31 32  2  0
 30 33  1  0
 33 34  1  0
 34 35  2  0
 35 36  1  0
 36 37  2  0
 37 38  1  0
 38 39  2  0
 39 40  1  0
 40 41  1  0
 41 42  2  0
 42 43  1  0
 43 44  2  0
 44 45  1  0
 45 46  2  0
 19 47  1  0
 47 48  2  0
 15 49  2  0
  4 50  1  0
 50 51  2  0
 51  1  1  0
 49  5  1  0
 13  8  1  0
 48 16  1  0
 32 20  1  0
 46 33  1  0
 26 21  1  0
 32 27  1  0
 39 34  1  0
 46 41  1  0
 40 29  1  0
  1 52  1  0
  2 53  1  0
  3 54  1  0
  9 55  1  0
 10 56  1  0
 11 57  1  0
 12 58  1  0
 13 59  1  0
 17 60  1  0
 18 61  1  0
 22 62  1  0
 23 63  1  0
 24 64  1  0
 25 65  1  0
 28 66  1  0
 31 67  1  0
 33 68  1  0
 35 69  1  0
 36 70  1  0
 37 71  1  0
 38 72  1  0
 40 73  1  0
 42 74  1  0
 43 75  1  0
 44 76  1  0
 45 77  1  0
 47 78  1  0
 48 79  1  0
 50 80  1  0
 51 81  1  0
M  END
