
     RDKit          3D

 86 92  0  0  0  0  0  0  0  0999 V2000
    0.7685    5.8713   -2.4094 C   0  0  0  0  0  0  0  0  0  0  0  0
    1.1720    4.5023   -2.9545 C   0  0  0  0  0  0  0  0  0  0  0  0
    1.2217    3.5800   -1.7463 C   0  0  0  0  0  0  0  0  0  0  0  0
    1.6406    2.1684   -2.1068 C   0  0  0  0  0  0  0  0  0  0  0  0
    1.7134    1.3376   -1.0472 O   0  0  0  0  0  0  0  0  0  0  0  0
    0.8559    0.8119   -0.1278 C   0  0  0  0  0  0  0  0  0  0  0  0
   -0.4753    1.0233   -0.0957 C   0  0  0  0  0  0  0  0  0  0  0  0
   -1.3068    0.4844    0.8318 C   0  0  0  0  0  0  0  0  0  0  0  0
   -2.7465    0.7084    0.8147 C   0  0  0  0  0  0  0  0  0  0  0  0
   -3.6082    0.4941   -0.1358 C   0  0  0  0  0  0  0  0  0  0  0  0
   -3.4400   -0.0367   -1.4638 C   0  0  0  0  0  0  0  0  0  0  0  0
   -2.3719   -0.5770   -2.1415 C   0  0  0  0  0  0  0  0  0  0  0  0
   -2.5350   -1.0192   -3.4329 C   0  0  0  0  0  0  0  0  0  0  0  0
   -3.7435   -0.9469   -4.0928 C   0  0  0  0  0  0  0  0  0  0  0  0
   -4.8061   -0.4031   -3.3951 C   0  0  0  0  0  0  0  0  0  0  0  0
   -4.6927    0.0593   -2.0896 C   0  0  0  0  0  0  0  0  0  0  0  0
   -5.6379    0.6390   -1.1637 C   0  0  0  0  0  0  0  0  0  0  0  0
   -6.9765    0.9300   -1.3030 C   0  0  0  0  0  0  0  0  0  0  0  0
   -7.7058    1.4937   -0.2631 C   0  0  0  0  0  0  0  0  0  0  0  0
   -7.0695    1.7663    0.9370 C   0  0  0  0  0  0  0  0  0  0  0  0
   -5.7210    1.4792    1.0925 C   0  0  0  0  0  0  0  0  0  0  0  0
   -5.0318    0.9191    0.0321 C   0  0  0  0  0  0  0  0  0  0  0  0
   -0.7431   -0.3467    1.8251 C   0  0  0  0  0  0  0  0  0  0  0  0
   -1.5754   -0.8717    2.7398 O   0  0  0  0  0  0  0  0  0  0  0  0
   -1.5400   -1.7002    3.8042 C   0  0  0  0  0  0  0  0  0  0  0  0
   -2.9217   -1.8847    4.4439 C   0  0  0  0  0  0  0  0  0  0  0  0
   -2.9175   -2.8473    5.5913 C   0  0  0  0  0  0  0  0  0  0  0  0
   -2.0315   -2.4692    6.7302 C   0  0  0  0  0  0  0  0  0  0  0  0
    0.6194   -0.5513    1.7772 C   0  0  0  0  0  0  0  0  0  0  0  0
    1.4666   -0.0382    0.8786 C   0  0  0  0  0  0  0  0  0  0  0  0
    2.8950   -0.0855    0.7232 C   0  0  0  0  0  0  0  0  0  0  0  0
    3.7509   -0.7960    0.0942 C   0  0  0  0  0  0  0  0  0  0  0  0
    3.3344   -1.9205   -0.7391 C   0  0  0  0  0  0  0  0  0  0  0  0
    2.3467   -2.6422   -0.1153 C   0  0  0  0  0  0  0  0  0  0  0  0
    1.8305   -3.7239   -0.7765 C   0  0  0  0  0  0  0  0  0  0  0  0
    2.2683   -4.0996   -2.0226 C   0  0  0  0  0  0  0  0  0  0  0  0
    3.2626   -3.3897   -2.6663 C   0  0  0  0  0  0  0  0  0  0  0  0
    3.7716   -2.3053   -1.9891 C   0  0  0  0  0  0  0  0  0  0  0  0
    4.8836   -1.7001   -2.7706 C   0  0  0  0  0  0  0  0  0  0  0  0
    5.8525   -0.9040   -2.3057 C   0  0  0  0  0  0  0  0  0  0  0  0
    6.0826   -0.4205   -0.9506 C   0  0  0  0  0  0  0  0  0  0  0  0
    7.3738    0.0384   -0.7963 C   0  0  0  0  0  0  0  0  0  0  0  0
    7.7370    0.5351    0.4303 C   0  0  0  0  0  0  0  0  0  0  0  0
    6.8261    0.5735    1.4913 C   0  0  0  0  0  0  0  0  0  0  0  0
    5.5125    0.1053    1.3356 C   0  0  0  0  0  0  0  0  0  0  0  0
    5.1817   -0.3743    0.1186 C   0  0  0  0  0  0  0  0  0  0  0  0
    0.2751    6.4811   -3.1771 H   0  0  0  0  0  0  0  0  0  0  0  0
    1.6892    6.3647   -1.9777 H   0  0  0  0  0  0  0  0  0  0  0  0
    0.0193    5.7485   -1.5854 H   0  0  0  0  0  0  0  0  0  0  0  0
    2.1737    4.5783   -3.4335 H   0  0  0  0  0  0  0  0  0  0  0  0
    0.4805    4.1183   -3.7183 H   0  0  0  0  0  0  0  0  0  0  0  0
    0.2520    3.6088   -1.2650 H   0  0  0  0  0  0  0  0  0  0  0  0
    1.9814    3.9652   -1.0199 H   0  0  0  0  0  0  0  0  0  0  0  0
    2.6889    2.2916   -2.5284 H   0  0  0  0  0  0  0  0  0  0  0  0
    1.0572    1.7942   -2.9897 H   0  0  0  0  0  0  0  0  0  0  0  0
   -0.9358    1.6541   -0.8642 H   0  0  0  0  0  0  0  0  0  0  0  0
   -3.0943    1.1193    1.7919 H   0  0  0  0  0  0  0  0  0  0  0  0
   -1.4353   -0.6945   -1.6861 H   0  0  0  0  0  0  0  0  0  0  0  0
   -1.6519   -1.4430   -3.9360 H   0  0  0  0  0  0  0  0  0  0  0  0
   -3.8827   -1.2937   -5.1199 H   0  0  0  0  0  0  0  0  0  0  0  0
   -5.7507   -0.3506   -3.9218 H   0  0  0  0  0  0  0  0  0  0  0  0
   -7.4435    0.7126   -2.2330 H   0  0  0  0  0  0  0  0  0  0  0  0
   -8.7408    1.6885   -0.4506 H   0  0  0  0  0  0  0  0  0  0  0  0
   -7.6306    2.2020    1.7476 H   0  0  0  0  0  0  0  0  0  0  0  0
   -5.1855    1.6813    2.0252 H   0  0  0  0  0  0  0  0  0  0  0  0
   -1.2980   -2.7503    3.4334 H   0  0  0  0  0  0  0  0  0  0  0  0
   -0.8157   -1.4557    4.6280 H   0  0  0  0  0  0  0  0  0  0  0  0
   -3.3039   -0.8709    4.7852 H   0  0  0  0  0  0  0  0  0  0  0  0
   -3.6364   -2.2346    3.6804 H   0  0  0  0  0  0  0  0  0  0  0  0
   -3.9746   -3.0405    5.9501 H   0  0  0  0  0  0  0  0  0  0  0  0
   -2.5927   -3.8636    5.2325 H   0  0  0  0  0  0  0  0  0  0  0  0
   -2.1962   -3.2442    7.5357 H   0  0  0  0  0  0  0  0  0  0  0  0
   -2.2477   -1.4584    7.1045 H   0  0  0  0  0  0  0  0  0  0  0  0
   -0.9615   -2.5992    6.4342 H   0  0  0  0  0  0  0  0  0  0  0  0
    1.0458   -1.1796    2.5669 H   0  0  0  0  0  0  0  0  0  0  0  0
    3.3895    0.7479    1.3268 H   0  0  0  0  0  0  0  0  0  0  0  0
    2.0522   -2.3626    0.8717 H   0  0  0  0  0  0  0  0  0  0  0  0
    1.0489   -4.3127   -0.2956 H   0  0  0  0  0  0  0  0  0  0  0  0
    1.8673   -4.9522   -2.5463 H   0  0  0  0  0  0  0  0  0  0  0  0
    3.6351   -3.6627   -3.6562 H   0  0  0  0  0  0  0  0  0  0  0  0
    4.9476   -1.9039   -3.8154 H   0  0  0  0  0  0  0  0  0  0  0  0
    6.5734   -0.5753   -3.0415 H   0  0  0  0  0  0  0  0  0  0  0  0
    8.0996    0.0227   -1.5868 H   0  0  0  0  0  0  0  0  0  0  0  0
    8.7566    0.9086    0.5728 H   0  0  0  0  0  0  0  0  0  0  0  0
    7.1397    0.9676    2.4340 H   0  0  0  0  0  0  0  0  0  0  0  0
    4.8344    0.1261    2.1370 H   0  0  0  0  0  0  0  0  0  0  0  0
  1  2  1  0
  2  3  1  0
  3  4  1  0
  4  5  1  0
  5  6  1  0
  6  7  2  0
  7  8  1  0
  8  9  1  0
  9 10  2  3
 10 11  1  0
 11 12  2  0
 12 13  1  0
 13 14  2  0
 14 15  1  0
 15 16  2  0
 16 17  1  0
 17 18  2  0
 18 19  1  0
 19 20  2  0
 20 21  1  0
 21 22  2  0
  8 23  2  0
 23 24  1  0
 24 25  1  0
 25 26  1  0
 26 27  1  0
 27 28  1  0
 23 29  1  0
 29 30  2  0
 30 31  1  0
 31 32  2  3
 32 33  1  0
 33 34  2  0
 34 35  1  0
 35 36  2  0
 36 37  1  0
 37 38  2  0
 38 39  1  0
 39 40  2  0
 40 41  1  0
 41 42  2  0
 42 43  1  0
 43 44  2  0
 44 45  1  0
 45 46  2  0
 30  6  1  0
 46 32  1  0
 22 10  1  0
 38 33  1  0
 46 41  1  0
 16 11  1  0
 22 17  1  0
  1 47  1  0
  1 48  1  0
  1 49  1  0
  2 50  1  0
  2 51  1  0
  3 52  1  0
  3 53  1  0
  4 54  1  0
  4 55  1  0
  7 56  1  0
  9 57  1  0
 12 58  1  0
 13 59  1  0
 14 60  1  0
 15 61  1  0
 18 62  1  0
 19 63  1  0
 20 64  1  0
 21 65  1  0
 25 66  1  0
 25 67  1  0
 26 68  1  0
 26 69  1  0
 27 70  1  0
 27 71  1  0
 28 72  1  0
 28 73  1  0
 28 74  1  0
 29 75  1  0
 31 76  1  0
 34 77  1  0
 35 78  1  0
 36 79  1  0
 37 80  1  0
 39 81  1  0
 40 82  1  0
 42 83  1  0
 43 84  1  0
 44 85  1  0
 45 86  1  0
M  END
