
     RDKit          3D

 52 57  0  0  0  0  0  0  0  0999 V2000
   -9.2240    4.7754   -1.4023 N   0  0  0  0  0  0  0  0  0  0  0  0
   -8.2525    4.0397   -1.1679 C   0  0  0  0  0  0  0  0  0  0  0  0
   -7.1422    3.1932   -0.8754 C   0  0  0  0  0  0  0  0  0  0  0  0
   -6.0183    3.6251   -0.2192 C   0  0  0  0  0  0  0  0  0  0  0  0
   -5.0372    2.7013    0.1393 C   0  0  0  0  0  0  0  0  0  0  0  0
   -5.1375    1.3525   -0.1339 C   0  0  0  0  0  0  0  0  0  0  0  0
   -4.2202    0.4030    0.3789 C   0  0  0  0  0  0  0  0  0  0  0  0
   -3.3950   -0.4366    0.8154 C   0  0  0  0  0  0  0  0  0  0  0  0
   -2.4382   -1.3918    1.3285 C   0  0  0  0  0  0  0  0  0  0  0  0
   -3.0855   -2.6112    1.6819 C   0  0  0  0  0  0  0  0  0  0  0  0
   -2.4556   -3.8083    1.5411 C   0  0  0  0  0  0  0  0  0  0  0  0
   -1.1643   -3.8197    1.0488 C   0  0  0  0  0  0  0  0  0  0  0  0
   -0.5817   -5.0460    0.7026 C   0  0  0  0  0  0  0  0  0  0  0  0
    0.6208   -5.0810    0.0469 C   0  0  0  0  0  0  0  0  0  0  0  0
    1.2945   -3.8985   -0.2853 C   0  0  0  0  0  0  0  0  0  0  0  0
    2.4967   -3.9027   -0.9000 C   0  0  0  0  0  0  0  0  0  0  0  0
    3.1971   -2.7174   -1.1573 C   0  0  0  0  0  0  0  0  0  0  0  0
    2.5639   -1.5279   -0.7248 C   0  0  0  0  0  0  0  0  0  0  0  0
    3.5444   -0.4242   -0.6215 C   0  0  0  0  0  0  0  0  0  0  0  0
    4.3436    0.4475   -0.5467 C   0  0  0  0  0  0  0  0  0  0  0  0
    5.2959    1.5192   -0.4479 C   0  0  0  0  0  0  0  0  0  0  0  0
    6.6068    1.4104   -0.7617 C   0  0  0  0  0  0  0  0  0  0  0  0
    7.4380    2.4875   -0.5583 C   0  0  0  0  0  0  0  0  0  0  0  0
    6.9919    3.6763   -0.0442 C   0  0  0  0  0  0  0  0  0  0  0  0
    7.7499    4.7869    0.3261 C   0  0  0  0  0  0  0  0  0  0  0  0
    8.4077    5.7711    0.6638 N   0  0  0  0  0  0  0  0  0  0  0  0
    5.6081    3.7726    0.2742 C   0  0  0  0  0  0  0  0  0  0  0  0
    4.7977    2.7215    0.0756 C   0  0  0  0  0  0  0  0  0  0  0  0
    1.3634   -1.5022   -0.1502 C   0  0  0  0  0  0  0  0  0  0  0  0
    0.7378   -0.2600    0.0877 C   0  0  0  0  0  0  0  0  0  0  0  0
   -0.5390   -0.2325    0.5752 C   0  0  0  0  0  0  0  0  0  0  0  0
   -1.1575   -1.4176    0.8716 C   0  0  0  0  0  0  0  0  0  0  0  0
   -0.5152   -2.6609    0.7226 C   0  0  0  0  0  0  0  0  0  0  0  0
    0.6958   -2.7117    0.0787 C   0  0  0  0  0  0  0  0  0  0  0  0
   -6.2965    0.9485   -0.8127 C   0  0  0  0  0  0  0  0  0  0  0  0
   -7.2592    1.8307   -1.1673 C   0  0  0  0  0  0  0  0  0  0  0  0
   -5.9141    4.6655   -0.0024 H   0  0  0  0  0  0  0  0  0  0  0  0
   -4.1493    3.0103    0.6405 H   0  0  0  0  0  0  0  0  0  0  0  0
   -4.0769   -2.5202    2.0595 H   0  0  0  0  0  0  0  0  0  0  0  0
   -2.9018   -4.7350    1.7937 H   0  0  0  0  0  0  0  0  0  0  0  0
   -1.1189   -5.9595    0.9692 H   0  0  0  0  0  0  0  0  0  0  0  0
    1.1102   -6.0075   -0.2537 H   0  0  0  0  0  0  0  0  0  0  0  0
    2.9295   -4.8611   -1.1916 H   0  0  0  0  0  0  0  0  0  0  0  0
    4.1248   -2.7291   -1.6567 H   0  0  0  0  0  0  0  0  0  0  0  0
    6.9691    0.4619   -1.1475 H   0  0  0  0  0  0  0  0  0  0  0  0
    8.5009    2.4015   -0.8012 H   0  0  0  0  0  0  0  0  0  0  0  0
    5.1866    4.6966    0.6856 H   0  0  0  0  0  0  0  0  0  0  0  0
    3.7400    2.7968    0.3135 H   0  0  0  0  0  0  0  0  0  0  0  0
    1.3297    0.6226   -0.1364 H   0  0  0  0  0  0  0  0  0  0  0  0
   -1.0212    0.7207    0.7214 H   0  0  0  0  0  0  0  0  0  0  0  0
   -6.3982   -0.1047   -1.0435 H   0  0  0  0  0  0  0  0  0  0  0  0
   -8.1451    1.5288   -1.6887 H   0  0  0  0  0  0  0  0  0  0  0  0
  1  2  3  0
  2  3  1  0
  3  4  2  0
  4  5  1  0
  5  6  2  0
  6  7  1  0
  7  8  3  0
  8  9  1  0
  9 10  2  0
 10 11  1  0
 11 12  2  0
 12 13  1  0
 13 14  2  0
 14 15  1  0
 15 16  2  0
 16 17  1  0
 17 18  2  0
 18 19  1  0
 19 20  3  0
 20 21  1  0
 21 22  2  0
 22 23  1  0
 23 24  2  0
 24 25  1  0
 25 26  3  0
 24 27  1  0
 27 28  2  0
 18 29  1  0
 29 30  2  0
 30 31  1  0
 31 32  2  0
 32 33  1  0
 33 34  2  0
  6 35  1  0
 35 36  2  0
 36  3  1  0
 32  9  1  0
 33 12  1  0
 34 15  1  0
 28 21  1  0
 34 29  1  0
  4 37  1  0
  5 38  1  0
 10 39  1  0
 11 40  1  0
 13 41  1  0
 14 42  1  0
 16 43  1  0
 17 44  1  0
 22 45  1  0
 23 46  1  0
 27 47  1  0
 28 48  1  0
 30 49  1  0
 31 50  1  0
 35 51  1  0
 36 52  1  0
M  END
