
     RDKit          3D

 81 90  0  0  0  0  0  0  0  0999 V2000
   -2.6817   -4.4217    0.4437 C   0  0  0  0  0  0  0  0  0  0  0  0
   -3.8102   -3.6935    0.8748 C   0  0  0  0  0  0  0  0  0  0  0  0
   -4.9306   -3.5230    0.0797 C   0  0  0  0  0  0  0  0  0  0  0  0
   -4.8832   -4.1239   -1.1273 C   0  0  0  0  0  0  0  0  0  0  0  0
   -3.7397   -4.8725   -1.5664 C   0  0  0  0  0  0  0  0  0  0  0  0
   -2.6371   -5.0162   -0.7955 C   0  0  0  0  0  0  0  0  0  0  0  0
   -1.2623   -5.5831   -1.2491 C   0  0  0  0  0  0  0  0  0  0  0  0
   -0.6114   -6.5646   -0.5589 C   0  0  0  0  0  0  0  0  0  0  0  0
    0.7659   -6.8089   -0.6608 C   0  0  0  0  0  0  0  0  0  0  0  0
    1.5538   -6.0486   -1.4971 C   0  0  0  0  0  0  0  0  0  0  0  0
    0.9161   -5.0793   -2.2358 C   0  0  0  0  0  0  0  0  0  0  0  0
   -0.4727   -4.8547   -2.1007 C   0  0  0  0  0  0  0  0  0  0  0  0
    3.0878   -5.9076   -1.2705 C   0  0  0  0  0  0  0  0  0  0  0  0
    4.3540   -6.3661   -1.2281 C   0  0  0  0  0  0  0  0  0  0  0  0
    5.3285   -5.5688   -0.8228 C   0  0  0  0  0  0  0  0  0  0  0  0
    5.0393   -4.3022   -0.4647 C   0  0  0  0  0  0  0  0  0  0  0  0
    3.3485   -4.2839   -0.7125 S   0  0  0  0  0  0  0  0  0  0  0  0
    5.4058   -2.8640   -0.0103 C   0  0  0  0  0  0  0  0  0  0  0  0
    6.0327   -1.9721   -0.8554 C   0  0  0  0  0  0  0  0  0  0  0  0
    5.9998   -0.6060   -0.6238 C   0  0  0  0  0  0  0  0  0  0  0  0
    5.3597    0.0111    0.4283 C   0  0  0  0  0  0  0  0  0  0  0  0
    4.7636   -0.9089    1.2753 C   0  0  0  0  0  0  0  0  0  0  0  0
    4.7849   -2.2931    1.0746 C   0  0  0  0  0  0  0  0  0  0  0  0
    5.0837    1.5323    0.4060 C   0  0  0  0  0  0  0  0  0  0  0  0
    5.1739    2.2997    1.5168 C   0  0  0  0  0  0  0  0  0  0  0  0
    4.7434    3.6653    1.5753 C   0  0  0  0  0  0  0  0  0  0  0  0
    4.2065    4.3226    0.5155 C   0  0  0  0  0  0  0  0  0  0  0  0
    4.1345    3.5495   -0.6276 C   0  0  0  0  0  0  0  0  0  0  0  0
    4.5515    2.2003   -0.6890 C   0  0  0  0  0  0  0  0  0  0  0  0
    3.4496    5.6307    0.5755 C   0  0  0  0  0  0  0  0  0  0  0  0
    3.3304    6.9803    0.5248 C   0  0  0  0  0  0  0  0  0  0  0  0
    2.1394    7.5443    0.5113 C   0  0  0  0  0  0  0  0  0  0  0  0
    1.0201    6.7760    0.5490 C   0  0  0  0  0  0  0  0  0  0  0  0
    1.7637    5.1802    0.6233 S   0  0  0  0  0  0  0  0  0  0  0  0
   -0.4765    6.5089    0.4782 C   0  0  0  0  0  0  0  0  0  0  0  0
   -1.3165    6.5216    1.5387 C   0  0  0  0  0  0  0  0  0  0  0  0
   -2.5622    5.8504    1.5457 C   0  0  0  0  0  0  0  0  0  0  0  0
   -3.0121    5.1237    0.4714 C   0  0  0  0  0  0  0  0  0  0  0  0
   -2.1780    5.1242   -0.6339 C   0  0  0  0  0  0  0  0  0  0  0  0
   -0.9456    5.8056   -0.6266 C   0  0  0  0  0  0  0  0  0  0  0  0
   -4.1323    4.0348    0.6764 C   0  0  0  0  0  0  0  0  0  0  0  0
   -3.7127    2.8927    1.3622 C   0  0  0  0  0  0  0  0  0  0  0  0
   -4.4444    1.7099    1.5388 C   0  0  0  0  0  0  0  0  0  0  0  0
   -5.7063    1.6127    0.9846 C   0  0  0  0  0  0  0  0  0  0  0  0
   -6.1269    2.7308    0.3292 C   0  0  0  0  0  0  0  0  0  0  0  0
   -5.3818    3.9294    0.1674 C   0  0  0  0  0  0  0  0  0  0  0  0
   -6.2862    0.2084    0.9337 C   0  0  0  0  0  0  0  0  0  0  0  0
   -7.2569   -0.6918    1.2890 C   0  0  0  0  0  0  0  0  0  0  0  0
   -7.0505   -1.9676    1.0442 C   0  0  0  0  0  0  0  0  0  0  0  0
   -5.9048   -2.3934    0.4561 C   0  0  0  0  0  0  0  0  0  0  0  0
   -5.1137   -0.8635    0.2299 S   0  0  0  0  0  0  0  0  0  0  0  0
   -1.8890   -4.3936    1.2753 H   0  0  0  0  0  0  0  0  0  0  0  0
   -3.5999   -3.4153    1.9803 H   0  0  0  0  0  0  0  0  0  0  0  0
   -5.6248   -4.1984   -1.9803 H   0  0  0  0  0  0  0  0  0  0  0  0
   -3.9652   -5.2971   -2.5816 H   0  0  0  0  0  0  0  0  0  0  0  0
   -1.0594   -7.3580    0.1228 H   0  0  0  0  0  0  0  0  0  0  0  0
    1.0443   -7.7082    0.0022 H   0  0  0  0  0  0  0  0  0  0  0  0
    1.2566   -4.4282   -3.1283 H   0  0  0  0  0  0  0  0  0  0  0  0
   -0.7777   -4.0112   -2.8033 H   0  0  0  0  0  0  0  0  0  0  0  0
    4.5557   -7.4136   -1.5616 H   0  0  0  0  0  0  0  0  0  0  0  0
    6.3825   -5.9217   -0.7481 H   0  0  0  0  0  0  0  0  0  0  0  0
    6.6653   -2.1864   -1.8028 H   0  0  0  0  0  0  0  0  0  0  0  0
    6.6702   -0.0977   -1.4150 H   0  0  0  0  0  0  0  0  0  0  0  0
    4.1918   -0.7053    2.2594 H   0  0  0  0  0  0  0  0  0  0  0  0
    4.3187   -2.7705    2.0282 H   0  0  0  0  0  0  0  0  0  0  0  0
    5.6248    2.0556    2.5347 H   0  0  0  0  0  0  0  0  0  0  0  0
    4.9670    4.0075    2.6390 H   0  0  0  0  0  0  0  0  0  0  0  0
    3.8484    3.8167   -1.7185 H   0  0  0  0  0  0  0  0  0  0  0  0
    4.3604    1.8458   -1.7606 H   0  0  0  0  0  0  0  0  0  0  0  0
    4.2674    7.5780    0.4910 H   0  0  0  0  0  0  0  0  0  0  0  0
    2.0025    8.6506    0.4589 H   0  0  0  0  0  0  0  0  0  0  0  0
   -1.2054    7.0631    2.5593 H   0  0  0  0  0  0  0  0  0  0  0  0
   -3.1408    6.0598    2.5185 H   0  0  0  0  0  0  0  0  0  0  0  0
   -2.2711    4.6511   -1.6554 H   0  0  0  0  0  0  0  0  0  0  0  0
   -0.5828    5.7269   -1.7072 H   0  0  0  0  0  0  0  0  0  0  0  0
   -2.7249    2.6872    1.8928 H   0  0  0  0  0  0  0  0  0  0  0  0
   -3.8366    1.0498    2.2787 H   0  0  0  0  0  0  0  0  0  0  0  0
   -7.1237    2.9276   -0.1974 H   0  0  0  0  0  0  0  0  0  0  0  0
   -6.0290    4.7030   -0.3720 H   0  0  0  0  0  0  0  0  0  0  0  0
   -8.1977   -0.3485    1.7888 H   0  0  0  0  0  0  0  0  0  0  0  0
   -7.8288   -2.7361    1.3219 H   0  0  0  0  0  0  0  0  0  0  0  0
  1  2  2  0
  2  3  1  0
  3  4  2  0
  4  5  1  0
  5  6  2  0
  6  7  1  0
  7  8  2  0
  8  9  1  0
  9 10  2  0
 10 11  1  0
 11 12  2  0
 10 13  1  0
 13 14  2  0
 14 15  1  0
 15 16  2  0
 16 17  1  0
 16 18  1  0
 18 19  2  0
 19 20  1  0
 20 21  2  0
 21 22  1  0
 22 23  2  0
 21 24  1  0
 24 25  2  0
 25 26  1  0
 26 27  2  0
 27 28  1  0
 28 29  2  0
 27 30  1  0
 30 31  2  0
 31 32  1  0
 32 33  2  0
 33 34  1  0
 33 35  1  0
 35 36  2  0
 36 37  1  0
 37 38  2  0
 38 39  1  0
 39 40  2  0
 38 41  1  0
 41 42  2  0
 42 43  1  0
 43 44  2  0
 44 45  1  0
 45 46  2  0
 44 47  1  0
 47 48  2  0
 48 49  1  0
 49 50  2  0
 50 51  1  0
  6  1  1  0
 12  7  1  0
 17 13  1  0
 23 18  1  0
 29 24  1  0
 34 30  1  0
 40 35  1  0
 46 41  1  0
 51 47  1  0
 50  3  1  0
  1 52  1  0
  2 53  1  0
  4 54  1  0
  5 55  1  0
  8 56  1  0
  9 57  1  0
 11 58  1  0
 12 59  1  0
 14 60  1  0
 15 61  1  0
 19 62  1  0
 20 63  1  0
 22 64  1  0
 23 65  1  0
 25 66  1  0
 26 67  1  0
 28 68  1  0
 29 69  1  0
 31 70  1  0
 32 71  1  0
 36 72  1  0
 37 73  1  0
 39 74  1  0
 40 75  1  0
 42 76  1  0
 43 77  1  0
 45 78  1  0
 46 79  1  0
 48 80  1  0
 49 81  1  0
M  END
