
     RDKit          3D

 33 34  0  0  0  0  0  0  0  0999 V2000
   -1.6580    3.4651   -1.7700 C   0  0  0  0  0  0  0  0  0  0  0  0
   -1.2530    2.4547   -0.8953 O   0  0  0  0  0  0  0  0  0  0  0  0
   -0.5797    1.3008   -1.3050 C   0  0  0  0  0  0  0  0  0  0  0  0
   -0.3438    1.2019   -2.5318 O   0  0  0  0  0  0  0  0  0  0  0  0
   -0.1867    0.2859   -0.3333 C   0  0  0  0  0  0  0  0  0  0  0  0
    1.0256    0.2931    0.3224 C   0  0  0  0  0  0  0  0  0  0  0  0
    2.0730    1.2913    0.1488 C   0  0  0  0  0  0  0  0  0  0  0  0
    2.1114    2.3146    0.8513 O   0  0  0  0  0  0  0  0  0  0  0  0
    3.0852    1.1508   -0.8132 O   0  0  0  0  0  0  0  0  0  0  0  0
    4.0973    2.1471   -0.9581 C   0  0  0  0  0  0  0  0  0  0  0  0
    1.0244   -0.8163    1.1497 C   0  0  0  0  0  0  0  0  0  0  0  0
    2.0202   -1.2500    2.0164 C   0  0  0  0  0  0  0  0  0  0  0  0
    1.7767   -2.3899    2.7342 C   0  0  0  0  0  0  0  0  0  0  0  0
    0.5664   -3.0364    2.5566 C   0  0  0  0  0  0  0  0  0  0  0  0
   -0.3703   -2.5715    1.6988 N   0  0  0  0  0  0  0  0  0  0  0  0
   -0.1393   -1.4764    1.0077 N   0  0  0  0  0  0  0  0  0  0  0  0
   -0.9094   -0.8116    0.0916 C   0  0  0  0  0  0  0  0  0  0  0  0
   -2.2378   -1.1771   -0.3601 C   0  0  0  0  0  0  0  0  0  0  0  0
   -2.8068   -0.4518   -1.2117 O   0  0  0  0  0  0  0  0  0  0  0  0
   -2.9272   -2.2826    0.0889 O   0  0  0  0  0  0  0  0  0  0  0  0
   -4.2232   -2.5647   -0.4074 C   0  0  0  0  0  0  0  0  0  0  0  0
   -2.6155    3.8925   -1.3730 H   0  0  0  0  0  0  0  0  0  0  0  0
   -1.8467    2.9776   -2.7669 H   0  0  0  0  0  0  0  0  0  0  0  0
   -0.9609    4.3094   -1.8535 H   0  0  0  0  0  0  0  0  0  0  0  0
    4.6287    2.3399   -0.0063 H   0  0  0  0  0  0  0  0  0  0  0  0
    3.6293    3.0430   -1.3887 H   0  0  0  0  0  0  0  0  0  0  0  0
    4.8566    1.6906   -1.6449 H   0  0  0  0  0  0  0  0  0  0  0  0
    2.9372   -0.6846    2.0946 H   0  0  0  0  0  0  0  0  0  0  0  0
    2.5419   -2.7336    3.4080 H   0  0  0  0  0  0  0  0  0  0  0  0
    0.4154   -3.9360    3.1455 H   0  0  0  0  0  0  0  0  0  0  0  0
   -4.4326   -3.6583   -0.3683 H   0  0  0  0  0  0  0  0  0  0  0  0
   -5.0169   -2.0334    0.1711 H   0  0  0  0  0  0  0  0  0  0  0  0
   -4.2813   -2.2842   -1.4981 H   0  0  0  0  0  0  0  0  0  0  0  0
  1  2  1  0
  2  3  1  0
  3  4  2  0
  3  5  1  0
  5  6  1  0
  6  7  1  0
  7  8  2  0
  7  9  1  0
  9 10  1  0
  6 11  2  0
 11 12  1  0
 12 13  2  0
 13 14  1  0
 14 15  2  0
 15 16  1  0
 16 17  1  0
 17 18  1  0
 18 19  2  0
 18 20  1  0
 20 21  1  0
 17  5  2  0
 16 11  1  0
  1 22  1  0
  1 23  1  0
  1 24  1  0
 10 25  1  0
 10 26  1  0
 10 27  1  0
 12 28  1  0
 13 29  1  0
 14 30  1  0
 21 31  1  0
 21 32  1  0
 21 33  1  0
M  END
