
     RDKit          3D

 47 49  0  0  0  0  0  0  0  0999 V2000
    1.9204    3.9173   -1.9965 C   0  0  0  0  0  0  0  0  0  0  0  0
    2.5060    3.4808   -0.6859 C   0  0  0  0  0  0  0  0  0  0  0  0
    1.8065    2.4490   -0.0609 O   0  0  0  0  0  0  0  0  0  0  0  0
    1.6030    1.1952   -0.6209 C   0  0  0  0  0  0  0  0  0  0  0  0
    2.0665    0.9662   -1.7446 O   0  0  0  0  0  0  0  0  0  0  0  0
    0.8355    0.1506    0.1325 C   0  0  0  0  0  0  0  0  0  0  0  0
    1.5128   -0.6984    0.9638 C   0  0  0  0  0  0  0  0  0  0  0  0
    2.9404   -0.7206    1.2225 N   0  0  0  0  0  0  0  0  0  0  0  0
    3.5678   -1.8350    1.1812 C   0  0  0  0  0  0  0  0  0  0  0  0
    5.0244   -1.9057    1.4384 C   0  0  0  0  0  0  0  0  0  0  0  0
    5.8653   -0.8665    1.7385 C   0  0  0  0  0  0  0  0  0  0  0  0
    7.1585   -1.1638    1.9339 C   0  0  0  0  0  0  0  0  0  0  0  0
    7.5299   -2.4719    1.8185 C   0  0  0  0  0  0  0  0  0  0  0  0
    6.0638   -3.2550    1.4398 S   0  0  0  0  0  0  0  0  0  0  0  0
    0.2860   -1.6903    1.5955 S   0  0  0  0  0  0  0  0  0  0  0  0
   -1.0552   -1.0109    0.7960 C   0  0  0  0  0  0  0  0  0  0  0  0
   -2.4555   -1.3892    0.8801 N   0  0  0  0  0  0  0  0  0  0  0  0
   -2.8647   -2.3989    0.2054 C   0  0  0  0  0  0  0  0  0  0  0  0
   -4.2942   -2.7916    0.2862 C   0  0  0  0  0  0  0  0  0  0  0  0
   -5.2739   -2.1830    1.0241 C   0  0  0  0  0  0  0  0  0  0  0  0
   -6.5144   -2.7158    0.9449 C   0  0  0  0  0  0  0  0  0  0  0  0
   -6.6775   -3.8056    0.1416 C   0  0  0  0  0  0  0  0  0  0  0  0
   -5.1178   -4.0662   -0.4824 S   0  0  0  0  0  0  0  0  0  0  0  0
   -0.4967   -0.0049    0.0400 C   0  0  0  0  0  0  0  0  0  0  0  0
   -1.3767    0.8366   -0.8189 C   0  0  0  0  0  0  0  0  0  0  0  0
   -0.8516    1.7503   -1.5026 O   0  0  0  0  0  0  0  0  0  0  0  0
   -2.7303    0.6317   -0.8734 O   0  0  0  0  0  0  0  0  0  0  0  0
   -3.5365    1.4524   -1.7023 C   0  0  0  0  0  0  0  0  0  0  0  0
   -3.4366    2.9128   -1.3084 C   0  0  0  0  0  0  0  0  0  0  0  0
    0.8218    3.9005   -1.9071 H   0  0  0  0  0  0  0  0  0  0  0  0
    2.3115    4.9411   -2.2063 H   0  0  0  0  0  0  0  0  0  0  0  0
    2.2292    3.2732   -2.8499 H   0  0  0  0  0  0  0  0  0  0  0  0
    3.6067    3.2620   -0.7709 H   0  0  0  0  0  0  0  0  0  0  0  0
    2.4574    4.3704   -0.0010 H   0  0  0  0  0  0  0  0  0  0  0  0
    3.0872   -2.7738    0.9613 H   0  0  0  0  0  0  0  0  0  0  0  0
    5.4397    0.1637    1.8049 H   0  0  0  0  0  0  0  0  0  0  0  0
    7.9145   -0.3893    2.1812 H   0  0  0  0  0  0  0  0  0  0  0  0
    8.5508   -2.8752    1.9492 H   0  0  0  0  0  0  0  0  0  0  0  0
   -2.1793   -2.9352   -0.3968 H   0  0  0  0  0  0  0  0  0  0  0  0
   -5.0279   -1.2871    1.6543 H   0  0  0  0  0  0  0  0  0  0  0  0
   -7.3741   -2.2833    1.5135 H   0  0  0  0  0  0  0  0  0  0  0  0
   -7.6291   -4.3459   -0.0215 H   0  0  0  0  0  0  0  0  0  0  0  0
   -3.2655    1.2712   -2.7413 H   0  0  0  0  0  0  0  0  0  0  0  0
   -4.6118    1.1642   -1.5236 H   0  0  0  0  0  0  0  0  0  0  0  0
   -3.3566    2.9428   -0.2008 H   0  0  0  0  0  0  0  0  0  0  0  0
   -4.3876    3.4047   -1.6382 H   0  0  0  0  0  0  0  0  0  0  0  0
   -2.5920    3.4265   -1.7927 H   0  0  0  0  0  0  0  0  0  0  0  0
  1  2  1  0
  2  3  1  0
  3  4  1  0
  4  5  2  0
  4  6  1  0
  6  7  2  0
  7  8  1  0
  8  9  2  0
  9 10  1  0
 10 11  2  0
 11 12  1  0
 12 13  2  0
 13 14  1  0
  7 15  1  0
 15 16  1  0
 16 17  1  0
 17 18  2  0
 18 19  1  0
 19 20  2  0
 20 21  1  0
 21 22  2  0
 22 23  1  0
 16 24  2  0
 24 25  1  0
 25 26  2  0
 25 27  1  0
 27 28  1  0
 28 29  1  0
 24  6  1  0
 14 10  1  0
 23 19  1  0
  1 30  1  0
  1 31  1  0
  1 32  1  0
  2 33  1  0
  2 34  1  0
  9 35  1  0
 11 36  1  0
 12 37  1  0
 13 38  1  0
 18 39  1  0
 20 40  1  0
 21 41  1  0
 22 42  1  0
 28 43  1  0
 28 44  1  0
 29 45  1  0
 29 46  1  0
 29 47  1  0
M  END
