
     RDKit          3D

 20 21  0  0  0  0  0  0  0  0999 V2000
    3.1689    0.1677   -0.0779 C   0  0  0  0  0  0  0  0  0  0  0  0
    2.4053    1.1329   -0.6962 C   0  0  0  0  0  0  0  0  0  0  0  0
    1.0356    1.0674   -0.6652 C   0  0  0  0  0  0  0  0  0  0  0  0
    0.3785    0.0472   -0.0230 C   0  0  0  0  0  0  0  0  0  0  0  0
   -1.0473   -0.0467    0.0255 N   0  0  0  0  0  0  0  0  0  0  0  0
   -1.8023   -0.3790    1.0869 C   0  0  0  0  0  0  0  0  0  0  0  0
   -3.1434   -0.3660    0.7612 C   0  0  0  0  0  0  0  0  0  0  0  0
   -3.2091   -0.0049   -0.5755 C   0  0  0  0  0  0  0  0  0  0  0  0
   -1.8862    0.1795   -0.9772 C   0  0  0  0  0  0  0  0  0  0  0  0
    1.1693   -0.9088    0.5896 C   0  0  0  0  0  0  0  0  0  0  0  0
    2.5468   -0.8734    0.5778 C   0  0  0  0  0  0  0  0  0  0  0  0
    4.2683    0.2015   -0.0909 H   0  0  0  0  0  0  0  0  0  0  0  0
    2.9338    1.9506   -1.2108 H   0  0  0  0  0  0  0  0  0  0  0  0
    0.4604    1.8299   -1.1534 H   0  0  0  0  0  0  0  0  0  0  0  0
   -1.3985   -0.6246    2.0704 H   0  0  0  0  0  0  0  0  0  0  0  0
   -4.0032   -0.5802    1.3679 H   0  0  0  0  0  0  0  0  0  0  0  0
   -4.0998    0.1152   -1.2003 H   0  0  0  0  0  0  0  0  0  0  0  0
   -1.6029    0.4722   -1.9911 H   0  0  0  0  0  0  0  0  0  0  0  0
    0.6786   -1.7317    1.1079 H   0  0  0  0  0  0  0  0  0  0  0  0
    3.1473   -1.6487    1.0743 H   0  0  0  0  0  0  0  0  0  0  0  0
  1  2  2  0
  2  3  1  0
  3  4  2  0
  4  5  1  0
  5  6  1  0
  6  7  2  0
  7  8  1  0
  8  9  2  0
  4 10  1  0
 10 11  2  0
 11  1  1  0
  9  5  1  0
  1 12  1  0
  2 13  1  0
  3 14  1  0
  6 15  1  0
  7 16  1  0
  8 17  1  0
  9 18  1  0
 10 19  1  0
 11 20  1  0
M  END
