
     RDKit          3D

 69 79  0  0  0  0  0  0  0  0999 V2000
   10.2412    2.1481    0.9878 C   0  0  0  0  0  0  0  0  0  0  0  0
    9.0467    2.3934    1.6302 C   0  0  0  0  0  0  0  0  0  0  0  0
    7.8855    1.7512    1.2561 C   0  0  0  0  0  0  0  0  0  0  0  0
    7.9523    0.8395    0.2024 C   0  0  0  0  0  0  0  0  0  0  0  0
    9.1252    0.5665   -0.4649 C   0  0  0  0  0  0  0  0  0  0  0  0
   10.2533    1.2411   -0.0442 C   0  0  0  0  0  0  0  0  0  0  0  0
    8.8554   -0.3167   -1.3838 O   0  0  0  0  0  0  0  0  0  0  0  0
    7.5985   -0.6654   -1.3958 C   0  0  0  0  0  0  0  0  0  0  0  0
    6.8710   -1.5335   -2.1580 N   0  0  0  0  0  0  0  0  0  0  0  0
    5.5540   -1.7141   -1.9611 C   0  0  0  0  0  0  0  0  0  0  0  0
    4.6273   -2.4641   -2.5287 O   0  0  0  0  0  0  0  0  0  0  0  0
    3.4601   -2.2763   -1.9598 C   0  0  0  0  0  0  0  0  0  0  0  0
    2.1903   -2.8017   -2.1682 C   0  0  0  0  0  0  0  0  0  0  0  0
    1.1318   -2.3954   -1.3849 C   0  0  0  0  0  0  0  0  0  0  0  0
    1.2684   -1.4666   -0.3735 C   0  0  0  0  0  0  0  0  0  0  0  0
    0.1345   -1.0856    0.4041 N   0  0  0  0  0  0  0  0  0  0  0  0
    0.0512   -1.0320    1.7454 C   0  0  0  0  0  0  0  0  0  0  0  0
    0.9733   -1.3091    2.7437 C   0  0  0  0  0  0  0  0  0  0  0  0
    0.6544   -1.1796    4.0827 C   0  0  0  0  0  0  0  0  0  0  0  0
   -0.6000   -0.7675    4.4777 C   0  0  0  0  0  0  0  0  0  0  0  0
   -1.5251   -0.4891    3.4962 C   0  0  0  0  0  0  0  0  0  0  0  0
   -1.2070   -0.6184    2.1556 C   0  0  0  0  0  0  0  0  0  0  0  0
   -1.9037   -0.4175    0.9783 C   0  0  0  0  0  0  0  0  0  0  0  0
   -3.2054   -0.0016    0.8039 C   0  0  0  0  0  0  0  0  0  0  0  0
   -3.7376    0.1447   -0.4556 C   0  0  0  0  0  0  0  0  0  0  0  0
   -5.0838    0.5753   -0.6133 N   0  0  0  0  0  0  0  0  0  0  0  0
   -5.6752    1.6778   -0.1403 C   0  0  0  0  0  0  0  0  0  0  0  0
   -5.2060    2.7254    0.6256 C   0  0  0  0  0  0  0  0  0  0  0  0
   -6.0108    3.7824    1.0060 C   0  0  0  0  0  0  0  0  0  0  0  0
   -7.3368    3.8005    0.6097 C   0  0  0  0  0  0  0  0  0  0  0  0
   -7.8042    2.7379   -0.1646 C   0  0  0  0  0  0  0  0  0  0  0  0
   -6.9900    1.7026   -0.5293 C   0  0  0  0  0  0  0  0  0  0  0  0
   -7.2189    0.5527   -1.2821 C   0  0  0  0  0  0  0  0  0  0  0  0
   -8.3292    0.0370   -1.9291 C   0  0  0  0  0  0  0  0  0  0  0  0
   -8.2608   -1.1594   -2.6184 C   0  0  0  0  0  0  0  0  0  0  0  0
   -7.0608   -1.8436   -2.6561 C   0  0  0  0  0  0  0  0  0  0  0  0
   -5.9649   -1.3155   -2.0063 C   0  0  0  0  0  0  0  0  0  0  0  0
   -6.0143   -0.1190   -1.3111 C   0  0  0  0  0  0  0  0  0  0  0  0
   -2.9177   -0.1409   -1.5265 C   0  0  0  0  0  0  0  0  0  0  0  0
   -1.5965   -0.5632   -1.3577 C   0  0  0  0  0  0  0  0  0  0  0  0
   -1.0802   -0.7042   -0.0909 C   0  0  0  0  0  0  0  0  0  0  0  0
    2.5268   -0.9412   -0.1617 C   0  0  0  0  0  0  0  0  0  0  0  0
    3.5922   -1.3483   -0.9482 C   0  0  0  0  0  0  0  0  0  0  0  0
    4.9249   -0.9909   -0.9494 C   0  0  0  0  0  0  0  0  0  0  0  0
    5.6252   -0.1078   -0.1619 C   0  0  0  0  0  0  0  0  0  0  0  0
    6.9852    0.0547   -0.3925 C   0  0  0  0  0  0  0  0  0  0  0  0
   11.1509    2.6747    1.3072 H   0  0  0  0  0  0  0  0  0  0  0  0
    9.0423    3.1069    2.4402 H   0  0  0  0  0  0  0  0  0  0  0  0
    6.9508    1.9195    1.7320 H   0  0  0  0  0  0  0  0  0  0  0  0
   11.1975    1.0595   -0.5380 H   0  0  0  0  0  0  0  0  0  0  0  0
    2.0971   -3.5259   -2.9608 H   0  0  0  0  0  0  0  0  0  0  0  0
    0.1563   -2.8171   -1.5654 H   0  0  0  0  0  0  0  0  0  0  0  0
    1.9666   -1.6350    2.4511 H   0  0  0  0  0  0  0  0  0  0  0  0
    1.4159   -1.4103    4.8139 H   0  0  0  0  0  0  0  0  0  0  0  0
   -0.8431   -0.6679    5.5440 H   0  0  0  0  0  0  0  0  0  0  0  0
   -2.5194   -0.1630    3.7795 H   0  0  0  0  0  0  0  0  0  0  0  0
   -3.8625    0.2271    1.6475 H   0  0  0  0  0  0  0  0  0  0  0  0
   -4.1856    2.7315    0.9425 H   0  0  0  0  0  0  0  0  0  0  0  0
   -5.6324    4.6136    1.6156 H   0  0  0  0  0  0  0  0  0  0  0  0
   -8.0038    4.6167    0.8895 H   0  0  0  0  0  0  0  0  0  0  0  0
   -8.8493    2.7650   -0.4693 H   0  0  0  0  0  0  0  0  0  0  0  0
   -9.2332    0.5920   -1.8771 H   0  0  0  0  0  0  0  0  0  0  0  0
   -9.1149   -1.5877   -3.1348 H   0  0  0  0  0  0  0  0  0  0  0  0
   -6.9961   -2.7938   -3.2004 H   0  0  0  0  0  0  0  0  0  0  0  0
   -5.0144   -1.8504   -2.0320 H   0  0  0  0  0  0  0  0  0  0  0  0
   -3.3068   -0.0354   -2.5183 H   0  0  0  0  0  0  0  0  0  0  0  0
   -0.9643   -0.7837   -2.1973 H   0  0  0  0  0  0  0  0  0  0  0  0
    2.6393   -0.2106    0.6322 H   0  0  0  0  0  0  0  0  0  0  0  0
    5.1095    0.4353    0.6110 H   0  0  0  0  0  0  0  0  0  0  0  0
  1  2  2  0
  2  3  1  0
  3  4  2  0
  4  5  1  0
  5  6  2  0
  5  7  1  0
  7  8  1  0
  8  9  2  0
  9 10  1  0
 10 11  1  0
 11 12  1  0
 12 13  2  0
 13 14  1  0
 14 15  2  0
 15 16  1  0
 16 17  1  0
 17 18  2  0
 18 19  1  0
 19 20  2  0
 20 21  1  0
 21 22  2  0
 22 23  1  0
 23 24  2  0
 24 25  1  0
 25 26  1  0
 26 27  1  0
 27 28  2  0
 28 29  1  0
 29 30  2  0
 30 31  1  0
 31 32  2  0
 32 33  1  0
 33 34  2  0
 34 35  1  0
 35 36  2  0
 36 37  1  0
 37 38  2  0
 25 39  2  0
 39 40  1  0
 40 41  2  0
 15 42  1  0
 42 43  2  0
 43 44  1  0
 44 45  1  0
 45 46  2  0
  6  1  1  0
 46  8  1  0
 46  4  1  0
 44 10  2  0
 43 12  1  0
 41 16  1  0
 22 17  1  0
 41 23  1  0
 38 26  1  0
 32 27  1  0
 38 33  1  0
  1 47  1  0
  2 48  1  0
  3 49  1  0
  6 50  1  0
 13 51  1  0
 14 52  1  0
 18 53  1  0
 19 54  1  0
 20 55  1  0
 21 56  1  0
 24 57  1  0
 28 58  1  0
 29 59  1  0
 30 60  1  0
 31 61  1  0
 34 62  1  0
 35 63  1  0
 36 64  1  0
 37 65  1  0
 39 66  1  0
 40 67  1  0
 42 68  1  0
 45 69  1  0
M  END
