
     RDKit          3D

 26 27  0  0  0  0  0  0  0  0999 V2000
    6.5551    2.9027   -0.6807 N   0  0  0  0  0  0  0  0  0  0  0  0
    5.4791    2.4514   -0.4986 C   0  0  0  0  0  0  0  0  0  0  0  0
    4.1832    1.8813   -0.2730 C   0  0  0  0  0  0  0  0  0  0  0  0
    3.7090    0.7951   -1.0042 C   0  0  0  0  0  0  0  0  0  0  0  0
    2.4641    0.2346   -0.8070 C   0  0  0  0  0  0  0  0  0  0  0  0
    1.6358    0.7579    0.1523 C   0  0  0  0  0  0  0  0  0  0  0  0
    0.3387    0.1728    0.3538 C   0  0  0  0  0  0  0  0  0  0  0  0
   -0.7642   -0.3015    0.5239 C   0  0  0  0  0  0  0  0  0  0  0  0
   -2.0873   -0.8777    0.7243 C   0  0  0  0  0  0  0  0  0  0  0  0
   -2.7299   -0.8875    1.9206 C   0  0  0  0  0  0  0  0  0  0  0  0
   -3.9818   -1.4357    2.0999 C   0  0  0  0  0  0  0  0  0  0  0  0
   -4.5906   -1.9910    1.0132 C   0  0  0  0  0  0  0  0  0  0  0  0
   -3.9979   -2.0182   -0.2391 C   0  0  0  0  0  0  0  0  0  0  0  0
   -2.7331   -1.4496   -0.3599 C   0  0  0  0  0  0  0  0  0  0  0  0
   -2.1224   -1.4741   -1.6468 C   0  0  0  0  0  0  0  0  0  0  0  0
   -1.6043   -1.4754   -2.7205 N   0  0  0  0  0  0  0  0  0  0  0  0
    2.0731    1.8346    0.8968 C   0  0  0  0  0  0  0  0  0  0  0  0
    3.3182    2.3835    0.6887 C   0  0  0  0  0  0  0  0  0  0  0  0
    4.3821    0.4041   -1.7514 H   0  0  0  0  0  0  0  0  0  0  0  0
    2.1435   -0.6095   -1.4027 H   0  0  0  0  0  0  0  0  0  0  0  0
   -2.2126   -0.4316    2.7758 H   0  0  0  0  0  0  0  0  0  0  0  0
   -4.4727   -1.4328    3.0509 H   0  0  0  0  0  0  0  0  0  0  0  0
   -5.5736   -2.4310    1.1133 H   0  0  0  0  0  0  0  0  0  0  0  0
   -4.5061   -2.4695   -1.0952 H   0  0  0  0  0  0  0  0  0  0  0  0
    1.4193    2.2405    1.6478 H   0  0  0  0  0  0  0  0  0  0  0  0
    3.6754    3.2265    1.2639 H   0  0  0  0  0  0  0  0  0  0  0  0
  1  2  3  0
  2  3  1  0
  3  4  2  0
  4  5  1  0
  5  6  2  0
  6  7  1  0
  7  8  3  0
  8  9  1  0
  9 10  2  0
 10 11  1  0
 11 12  2  0
 12 13  1  0
 13 14  2  0
 14 15  1  0
 15 16  3  0
  6 17  1  0
 17 18  2  0
 18  3  1  0
 14  9  1  0
  4 19  1  0
  5 20  1  0
 10 21  1  0
 11 22  1  0
 12 23  1  0
 13 24  1  0
 17 25  1  0
 18 26  1  0
M  END
