
     RDKit          3D

 72 76  0  0  0  0  0  0  0  0999 V2000
    8.2692    2.1925    1.5274 C   0  0  0  0  0  0  0  0  0  0  0  0
    7.3683    1.2987    2.1382 O   0  0  0  0  0  0  0  0  0  0  0  0
    6.1706    1.0248    1.5051 C   0  0  0  0  0  0  0  0  0  0  0  0
    5.2487    0.1590    2.0501 C   0  0  0  0  0  0  0  0  0  0  0  0
    4.0240   -0.1322    1.4196 C   0  0  0  0  0  0  0  0  0  0  0  0
    3.7117    0.4483    0.2261 C   0  0  0  0  0  0  0  0  0  0  0  0
    2.5244    0.2000   -0.4630 N   0  0  0  0  0  0  0  0  0  0  0  0
    1.5582   -0.7498   -0.1194 C   0  0  0  0  0  0  0  0  0  0  0  0
    1.6591   -1.4907    0.8575 O   0  0  0  0  0  0  0  0  0  0  0  0
    0.3287   -0.8654   -1.0004 C   0  0  0  0  0  0  0  0  0  0  0  0
   -0.3151    0.5055   -0.9025 C   0  0  0  0  0  0  0  0  0  0  0  0
   -0.5146    1.1650   -1.9433 O   0  0  0  0  0  0  0  0  0  0  0  0
   -0.6892    1.0388    0.3478 N   0  0  0  0  0  0  0  0  0  0  0  0
   -1.2903    2.3014    0.5518 C   0  0  0  0  0  0  0  0  0  0  0  0
   -1.4034    3.3041   -0.3694 C   0  0  0  0  0  0  0  0  0  0  0  0
   -2.0353    4.5318   -0.0955 C   0  0  0  0  0  0  0  0  0  0  0  0
   -2.5723    4.7716    1.1345 C   0  0  0  0  0  0  0  0  0  0  0  0
   -3.2046    5.9549    1.4623 O   0  0  0  0  0  0  0  0  0  0  0  0
   -3.3886    7.0530    0.6174 C   0  0  0  0  0  0  0  0  0  0  0  0
   -2.4753    3.7873    2.0808 C   0  0  0  0  0  0  0  0  0  0  0  0
   -1.8611    2.5979    1.8087 C   0  0  0  0  0  0  0  0  0  0  0  0
   -0.6113   -1.8371   -0.4197 C   0  0  0  0  0  0  0  0  0  0  0  0
   -0.1461   -3.2191   -0.2456 C   0  0  0  0  0  0  0  0  0  0  0  0
   -0.8633   -3.9927    0.6786 C   0  0  0  0  0  0  0  0  0  0  0  0
   -0.5429   -5.3011    0.9466 C   0  0  0  0  0  0  0  0  0  0  0  0
    0.5268   -5.8630    0.2747 C   0  0  0  0  0  0  0  0  0  0  0  0
    1.2595   -5.1382   -0.6425 C   0  0  0  0  0  0  0  0  0  0  0  0
    0.9011   -3.8183   -0.8833 C   0  0  0  0  0  0  0  0  0  0  0  0
    1.6098   -3.0501   -1.7995 O   0  0  0  0  0  0  0  0  0  0  0  0
   -1.9670   -1.8442   -1.0395 C   0  0  0  0  0  0  0  0  0  0  0  0
   -2.3453   -2.1971   -2.3006 C   0  0  0  0  0  0  0  0  0  0  0  0
   -1.4535   -2.6745   -3.3846 C   0  0  0  0  0  0  0  0  0  0  0  0
   -3.6705   -2.0569   -2.4501 N   0  0  0  0  0  0  0  0  0  0  0  0
   -4.2046   -1.6048   -1.2837 C   0  0  0  0  0  0  0  0  0  0  0  0
   -5.4988   -1.3010   -0.9104 C   0  0  0  0  0  0  0  0  0  0  0  0
   -5.7764   -0.8536    0.3563 C   0  0  0  0  0  0  0  0  0  0  0  0
   -4.7189   -0.7200    1.2377 C   0  0  0  0  0  0  0  0  0  0  0  0
   -3.4329   -1.0243    0.8593 C   0  0  0  0  0  0  0  0  0  0  0  0
   -3.1668   -1.4717   -0.4133 C   0  0  0  0  0  0  0  0  0  0  0  0
    4.6500    1.3275   -0.3248 C   0  0  0  0  0  0  0  0  0  0  0  0
    5.8346    1.5997    0.2998 C   0  0  0  0  0  0  0  0  0  0  0  0
    8.5709    1.7796    0.5277 H   0  0  0  0  0  0  0  0  0  0  0  0
    7.7166    3.1283    1.3068 H   0  0  0  0  0  0  0  0  0  0  0  0
    9.1659    2.3770    2.1586 H   0  0  0  0  0  0  0  0  0  0  0  0
    5.4895   -0.3004    2.9901 H   0  0  0  0  0  0  0  0  0  0  0  0
    3.3687   -0.8134    1.9225 H   0  0  0  0  0  0  0  0  0  0  0  0
    2.3344    0.7901   -1.3330 H   0  0  0  0  0  0  0  0  0  0  0  0
    0.6077   -0.9826   -2.0410 H   0  0  0  0  0  0  0  0  0  0  0  0
   -0.5005    0.4436    1.2118 H   0  0  0  0  0  0  0  0  0  0  0  0
   -0.9855    3.1741   -1.3600 H   0  0  0  0  0  0  0  0  0  0  0  0
   -2.0845    5.2649   -0.8619 H   0  0  0  0  0  0  0  0  0  0  0  0
   -2.5708    7.7750    0.6070 H   0  0  0  0  0  0  0  0  0  0  0  0
   -3.5121    6.6589   -0.4327 H   0  0  0  0  0  0  0  0  0  0  0  0
   -4.3708    7.5581    0.8242 H   0  0  0  0  0  0  0  0  0  0  0  0
   -2.8902    3.9426    3.0706 H   0  0  0  0  0  0  0  0  0  0  0  0
   -1.7940    1.8347    2.5676 H   0  0  0  0  0  0  0  0  0  0  0  0
   -0.7791   -1.4751    0.6481 H   0  0  0  0  0  0  0  0  0  0  0  0
   -1.7101   -3.5681    1.2187 H   0  0  0  0  0  0  0  0  0  0  0  0
   -1.1172   -5.8915    1.6745 H   0  0  0  0  0  0  0  0  0  0  0  0
    0.7863   -6.9073    0.4857 H   0  0  0  0  0  0  0  0  0  0  0  0
    2.0935   -5.5727   -1.1686 H   0  0  0  0  0  0  0  0  0  0  0  0
    2.3992   -3.3786   -2.3311 H   0  0  0  0  0  0  0  0  0  0  0  0
   -2.0503   -2.9705   -4.2979 H   0  0  0  0  0  0  0  0  0  0  0  0
   -0.9154   -3.5931   -3.1118 H   0  0  0  0  0  0  0  0  0  0  0  0
   -0.7963   -1.8579   -3.7643 H   0  0  0  0  0  0  0  0  0  0  0  0
   -4.2300   -2.2596   -3.3269 H   0  0  0  0  0  0  0  0  0  0  0  0
   -6.2817   -1.4243   -1.6385 H   0  0  0  0  0  0  0  0  0  0  0  0
   -6.8050   -0.6063    0.6710 H   0  0  0  0  0  0  0  0  0  0  0  0
   -4.9739   -0.3638    2.2299 H   0  0  0  0  0  0  0  0  0  0  0  0
   -2.6423   -0.9042    1.5817 H   0  0  0  0  0  0  0  0  0  0  0  0
    4.4232    1.7950   -1.2640 H   0  0  0  0  0  0  0  0  0  0  0  0
    6.5574    2.2916   -0.1480 H   0  0  0  0  0  0  0  0  0  0  0  0
  1  2  1  0
  2  3  1  0
  3  4  2  0
  4  5  1  0
  5  6  2  0
  6  7  1  0
  7  8  1  0
  8  9  2  0
  8 10  1  0
 10 11  1  0
 11 12  2  0
 11 13  1  0
 13 14  1  0
 14 15  2  0
 15 16  1  0
 16 17  2  0
 17 18  1  0
 18 19  1  0
 17 20  1  0
 20 21  2  0
 10 22  1  0
 22 23  1  0
 23 24  2  0
 24 25  1  0
 25 26  2  0
 26 27  1  0
 27 28  2  0
 28 29  1  0
 22 30  1  0
 30 31  2  0
 31 32  1  0
 31 33  1  0
 33 34  1  0
 34 35  2  0
 35 36  1  0
 36 37  2  0
 37 38  1  0
 38 39  2  0
  6 40  1  0
 40 41  2  0
 41  3  1  0
 21 14  1  0
 28 23  1  0
 39 30  1  0
 39 34  1  0
  1 42  1  0
  1 43  1  0
  1 44  1  0
  4 45  1  0
  5 46  1  0
  7 47  1  0
 10 48  1  0
 13 49  1  0
 15 50  1  0
 16 51  1  0
 19 52  1  0
 19 53  1  0
 19 54  1  0
 20 55  1  0
 21 56  1  0
 22 57  1  0
 24 58  1  0
 25 59  1  0
 26 60  1  0
 27 61  1  0
 29 62  1  0
 32 63  1  0
 32 64  1  0
 32 65  1  0
 33 66  1  0
 35 67  1  0
 36 68  1  0
 37 69  1  0
 38 70  1  0
 40 71  1  0
 41 72  1  0
M  END
