
     RDKit          3D

 29 31  0  0  0  0  0  0  0  0999 V2000
   -2.2812   -2.1936    0.1813 C   0  0  0  0  0  0  0  0  0  0  0  0
   -2.0172   -0.9991   -0.6989 C   0  0  0  0  0  0  0  0  0  0  0  0
   -0.8515   -0.2480   -0.2918 N   0  0  0  0  0  0  0  0  0  0  0  0
   -0.8710    0.7716    0.5804 C   0  0  0  0  0  0  0  0  0  0  0  0
   -1.9283    1.3579    1.2907 C   0  0  0  0  0  0  0  0  0  0  0  0
   -1.7007    2.3995    2.1322 C   0  0  0  0  0  0  0  0  0  0  0  0
   -0.4225    2.8728    2.2803 C   0  0  0  0  0  0  0  0  0  0  0  0
    0.6151    2.3133    1.5968 C   0  0  0  0  0  0  0  0  0  0  0  0
    0.3977    1.2634    0.7461 C   0  0  0  0  0  0  0  0  0  0  0  0
    1.2230    0.4911   -0.0762 C   0  0  0  0  0  0  0  0  0  0  0  0
    2.5817    0.5528   -0.2947 C   0  0  0  0  0  0  0  0  0  0  0  0
    3.1432   -0.3471   -1.1730 C   0  0  0  0  0  0  0  0  0  0  0  0
    2.3815   -1.2960   -1.8291 C   0  0  0  0  0  0  0  0  0  0  0  0
    2.9950   -2.2352   -2.7513 C   0  0  0  0  0  0  0  0  0  0  0  0
    3.4973   -2.9856   -3.4713 N   0  0  0  0  0  0  0  0  0  0  0  0
    1.0291   -1.3181   -1.5781 C   0  0  0  0  0  0  0  0  0  0  0  0
    0.4015   -0.4300   -0.6967 C   0  0  0  0  0  0  0  0  0  0  0  0
   -3.3298   -2.5217   -0.0233 H   0  0  0  0  0  0  0  0  0  0  0  0
   -1.5527   -3.0082    0.0187 H   0  0  0  0  0  0  0  0  0  0  0  0
   -2.1644   -1.8530    1.2430 H   0  0  0  0  0  0  0  0  0  0  0  0
   -2.9446   -0.3614   -0.6497 H   0  0  0  0  0  0  0  0  0  0  0  0
   -1.9512   -1.3094   -1.7704 H   0  0  0  0  0  0  0  0  0  0  0  0
   -2.9463    0.9788    1.1708 H   0  0  0  0  0  0  0  0  0  0  0  0
   -2.5172    2.8570    2.6848 H   0  0  0  0  0  0  0  0  0  0  0  0
   -0.2645    3.6946    2.9486 H   0  0  0  0  0  0  0  0  0  0  0  0
    1.6447    2.6615    1.6880 H   0  0  0  0  0  0  0  0  0  0  0  0
    3.1950    1.2848    0.2064 H   0  0  0  0  0  0  0  0  0  0  0  0
    4.2173   -0.3368   -1.3785 H   0  0  0  0  0  0  0  0  0  0  0  0
    0.4213   -2.0559   -2.0852 H   0  0  0  0  0  0  0  0  0  0  0  0
  1  2  1  0
  2  3  1  0
  3  4  1  0
  4  5  2  0
  5  6  1  0
  6  7  2  0
  7  8  1  0
  8  9  2  0
  9 10  1  0
 10 11  2  0
 11 12  1  0
 12 13  2  0
 13 14  1  0
 14 15  3  0
 13 16  1  0
 16 17  2  0
 17  3  1  0
  9  4  1  0
 17 10  1  0
  1 18  1  0
  1 19  1  0
  1 20  1  0
  2 21  1  0
  2 22  1  0
  5 23  1  0
  6 24  1  0
  7 25  1  0
  8 26  1  0
 11 27  1  0
 12 28  1  0
 16 29  1  0
M  END
