
     RDKit          3D

 98104  0  0  0  0  0  0  0  0999 V2000
   -9.9368    4.9712   -1.6985 C   0  0  0  0  0  0  0  0  0  0  0  0
   -8.7008    4.2003   -1.3255 C   0  0  0  0  0  0  0  0  0  0  0  0
   -8.8314    3.7665    0.0106 O   0  0  0  0  0  0  0  0  0  0  0  0
   -8.9841    4.7150    1.0061 C   0  0  0  0  0  0  0  0  0  0  0  0
   -8.9965    5.9360    0.6385 O   0  0  0  0  0  0  0  0  0  0  0  0
   -9.1310    4.3991    2.4309 C   0  0  0  0  0  0  0  0  0  0  0  0
   -9.0458    3.0432    2.7218 O   0  0  0  0  0  0  0  0  0  0  0  0
   -7.8757    2.3359    2.4464 C   0  0  0  0  0  0  0  0  0  0  0  0
   -7.8360    0.9826    2.7359 C   0  0  0  0  0  0  0  0  0  0  0  0
   -6.7086    0.2413    2.4847 C   0  0  0  0  0  0  0  0  0  0  0  0
   -5.5546    0.8162    1.9276 C   0  0  0  0  0  0  0  0  0  0  0  0
   -4.4151   -0.0512    1.7002 C   0  0  0  0  0  0  0  0  0  0  0  0
   -3.3060    0.3394    1.1707 C   0  0  0  0  0  0  0  0  0  0  0  0
   -2.0930   -0.3483    0.8422 C   0  0  0  0  0  0  0  0  0  0  0  0
   -1.0192    0.4727    0.5806 C   0  0  0  0  0  0  0  0  0  0  0  0
   -0.8886    1.9238    0.5564 C   0  0  0  0  0  0  0  0  0  0  0  0
   -1.9069    3.0036    0.6648 C   0  0  0  0  0  0  0  0  0  0  0  0
    0.4116    2.1608    0.4058 C   0  0  0  0  0  0  0  0  0  0  0  0
    1.1636    0.8846    0.3300 C   0  0  0  0  0  0  0  0  0  0  0  0
    2.5937    0.9335    0.1603 C   0  0  0  0  0  0  0  0  0  0  0  0
    3.4730   -0.0195    0.1318 C   0  0  0  0  0  0  0  0  0  0  0  0
    4.9217    0.2140   -0.0626 C   0  0  0  0  0  0  0  0  0  0  0  0
    5.4999    1.4336   -0.2121 C   0  0  0  0  0  0  0  0  0  0  0  0
    6.8833    1.5757   -0.4192 C   0  0  0  0  0  0  0  0  0  0  0  0
    7.7065    0.4778   -0.4780 C   0  0  0  0  0  0  0  0  0  0  0  0
    9.0817    0.6171   -0.6862 O   0  0  0  0  0  0  0  0  0  0  0  0
    9.5939    1.9254   -0.8320 C   0  0  0  0  0  0  0  0  0  0  0  0
   11.0581    1.9099   -1.0659 C   0  0  0  0  0  0  0  0  0  0  0  0
   11.6710    0.8037   -1.1201 O   0  0  0  0  0  0  0  0  0  0  0  0
   11.8080    3.0547   -1.2325 O   0  0  0  0  0  0  0  0  0  0  0  0
   13.2008    3.0656   -1.4618 C   0  0  0  0  0  0  0  0  0  0  0  0
   14.0158    2.4317   -0.3861 C   0  0  0  0  0  0  0  0  0  0  0  0
    7.1208   -0.7618   -0.3252 C   0  0  0  0  0  0  0  0  0  0  0  0
    5.7657   -0.9079   -0.1220 C   0  0  0  0  0  0  0  0  0  0  0  0
    0.2874   -0.0566    0.4354 N   0  0  0  0  0  4  0  0  0  0  0  0
    0.5527   -1.5459    0.4651 B   0  0  0  0  0  4  0  0  0  0  0  0
    1.3749   -1.9074   -0.6745 F   0  0  0  0  0  0  0  0  0  0  0  0
    1.2212   -1.8209    1.6998 F   0  0  0  0  0  0  0  0  0  0  0  0
   -0.7573   -2.3554    0.3641 N   0  0  0  0  0  0  0  0  0  0  0  0
   -1.9301   -1.8022    0.6883 C   0  0  0  0  0  0  0  0  0  0  0  0
   -2.9300   -2.7948    0.4606 C   0  0  0  0  0  0  0  0  0  0  0  0
   -4.2920   -2.8548    0.5040 C   0  0  0  0  0  0  0  0  0  0  0  0
   -4.9729   -3.9871    0.1281 C   0  0  0  0  0  0  0  0  0  0  0  0
   -4.3067   -5.1025   -0.3107 C   0  0  0  0  0  0  0  0  0  0  0  0
   -2.9226   -5.0671   -0.3711 C   0  0  0  0  0  0  0  0  0  0  0  0
   -2.2569   -3.9221    0.0093 C   0  0  0  0  0  0  0  0  0  0  0  0
   -0.9110   -3.6106   -0.0428 C   0  0  0  0  0  0  0  0  0  0  0  0
    0.0772   -4.5260   -0.6546 C   0  0  0  0  0  0  0  0  0  0  0  0
   -0.2225   -5.2278   -1.8045 N   0  0  0  0  0  0  0  0  0  0  0  0
    0.7681   -6.0623   -2.1241 C   0  0  0  0  0  0  0  0  0  0  0  0
    0.8561   -7.0044   -3.2863 C   0  0  0  0  0  0  0  0  0  0  0  0
    1.7267   -5.9023   -1.1693 C   0  0  0  0  0  0  0  0  0  0  0  0
    1.2846   -4.9305   -0.2411 C   0  0  0  0  0  0  0  0  0  0  0  0
    2.1301   -4.6143    0.9437 C   0  0  0  0  0  0  0  0  0  0  0  0
   -5.6386    2.1530    1.6589 C   0  0  0  0  0  0  0  0  0  0  0  0
   -6.7654    2.9217    1.9041 C   0  0  0  0  0  0  0  0  0  0  0  0
   -9.7739    6.0719   -1.6043 H   0  0  0  0  0  0  0  0  0  0  0  0
  -10.8256    4.6970   -1.0868 H   0  0  0  0  0  0  0  0  0  0  0  0
  -10.2191    4.7727   -2.7611 H   0  0  0  0  0  0  0  0  0  0  0  0
   -7.8148    4.8705   -1.4105 H   0  0  0  0  0  0  0  0  0  0  0  0
   -8.5353    3.3273   -1.9934 H   0  0  0  0  0  0  0  0  0  0  0  0
  -10.1228    4.7880    2.7842 H   0  0  0  0  0  0  0  0  0  0  0  0
   -8.3475    4.9433    3.0281 H   0  0  0  0  0  0  0  0  0  0  0  0
   -8.7197    0.5032    3.1717 H   0  0  0  0  0  0  0  0  0  0  0  0
   -6.7402   -0.8146    2.7333 H   0  0  0  0  0  0  0  0  0  0  0  0
   -4.4323   -1.0634    2.1985 H   0  0  0  0  0  0  0  0  0  0  0  0
   -3.3908    1.4070    0.8749 H   0  0  0  0  0  0  0  0  0  0  0  0
   -2.5714    3.1102   -0.1934 H   0  0  0  0  0  0  0  0  0  0  0  0
   -2.3456    3.1189    1.6743 H   0  0  0  0  0  0  0  0  0  0  0  0
   -1.3051    3.9884    0.5990 H   0  0  0  0  0  0  0  0  0  0  0  0
    0.8137    3.1625    0.3533 H   0  0  0  0  0  0  0  0  0  0  0  0
    3.0358    1.9559    0.0238 H   0  0  0  0  0  0  0  0  0  0  0  0
    3.1544   -1.0161    0.2955 H   0  0  0  0  0  0  0  0  0  0  0  0
    4.8880    2.3300   -0.1702 H   0  0  0  0  0  0  0  0  0  0  0  0
    7.2965    2.5687   -0.5330 H   0  0  0  0  0  0  0  0  0  0  0  0
    9.3009    2.5773    0.0119 H   0  0  0  0  0  0  0  0  0  0  0  0
    9.1227    2.3611   -1.7425 H   0  0  0  0  0  0  0  0  0  0  0  0
   13.4819    4.1528   -1.5542 H   0  0  0  0  0  0  0  0  0  0  0  0
   13.4367    2.6508   -2.4854 H   0  0  0  0  0  0  0  0  0  0  0  0
   14.2046    3.1974    0.4081 H   0  0  0  0  0  0  0  0  0  0  0  0
   13.5801    1.5038    0.0268 H   0  0  0  0  0  0  0  0  0  0  0  0
   15.0197    2.1493   -0.7961 H   0  0  0  0  0  0  0  0  0  0  0  0
    7.7790   -1.6259   -0.3717 H   0  0  0  0  0  0  0  0  0  0  0  0
    5.3315   -1.8824   -0.0058 H   0  0  0  0  0  0  0  0  0  0  0  0
   -4.9050   -2.0367    0.7253 H   0  0  0  0  0  0  0  0  0  0  0  0
   -6.0597   -4.0001    0.1790 H   0  0  0  0  0  0  0  0  0  0  0  0
   -4.8496   -5.9719   -0.5968 H   0  0  0  0  0  0  0  0  0  0  0  0
   -2.3854   -5.9584   -0.7023 H   0  0  0  0  0  0  0  0  0  0  0  0
   -1.0848   -5.1294   -2.3780 H   0  0  0  0  0  0  0  0  0  0  0  0
    1.4052   -7.9120   -2.9028 H   0  0  0  0  0  0  0  0  0  0  0  0
   -0.1479   -7.3154   -3.6405 H   0  0  0  0  0  0  0  0  0  0  0  0
    1.4960   -6.5880   -4.0880 H   0  0  0  0  0  0  0  0  0  0  0  0
    2.6706   -6.4293   -1.1263 H   0  0  0  0  0  0  0  0  0  0  0  0
    1.4284   -4.3866    1.7636 H   0  0  0  0  0  0  0  0  0  0  0  0
    2.7462   -3.7346    0.7290 H   0  0  0  0  0  0  0  0  0  0  0  0
    2.7666   -5.4991    1.2187 H   0  0  0  0  0  0  0  0  0  0  0  0
   -4.7682    2.6580    1.2262 H   0  0  0  0  0  0  0  0  0  0  0  0
   -6.7256    3.9719    1.6659 H   0  0  0  0  0  0  0  0  0  0  0  0
  1  2  1  0
  2  3  1  0
  3  4  1  0
  4  5  2  0
  4  6  1  0
  6  7  1  0
  7  8  1  0
  8  9  2  0
  9 10  1  0
 10 11  2  0
 11 12  1  0
 12 13  2  0
 13 14  1  0
 14 15  2  0
 15 16  1  0
 16 17  1  0
 16 18  2  0
 18 19  1  0
 19 20  1  0
 20 21  2  0
 21 22  1  0
 22 23  2  0
 23 24  1  0
 24 25  2  0
 25 26  1  0
 26 27  1  0
 27 28  1  0
 28 29  2  0
 28 30  1  0
 30 31  1  0
 31 32  1  0
 25 33  1  0
 33 34  2  0
 19 35  2  0
 35 36  1  0
 36 37  1  0
 36 38  1  0
 36 39  1  0
 39 40  1  0
 40 41  2  0
 41 42  1  0
 42 43  2  0
 43 44  1  0
 44 45  2  0
 45 46  1  0
 46 47  2  0
 47 48  1  0
 48 49  1  0
 49 50  1  0
 50 51  1  0
 50 52  2  0
 52 53  1  0
 53 54  1  0
 11 55  1  0
 55 56  2  0
 56  8  1  0
 40 14  1  0
 46 41  1  0
 53 48  2  0
 35 15  1  0
 47 39  1  0
 34 22  1  0
  1 57  1  0
  1 58  1  0
  1 59  1  0
  2 60  1  0
  2 61  1  0
  6 62  1  0
  6 63  1  0
  9 64  1  0
 10 65  1  0
 12 66  1  0
 13 67  1  0
 17 68  1  0
 17 69  1  0
 17 70  1  0
 18 71  1  0
 20 72  1  0
 21 73  1  0
 23 74  1  0
 24 75  1  0
 27 76  1  0
 27 77  1  0
 31 78  1  0
 31 79  1  0
 32 80  1  0
 32 81  1  0
 32 82  1  0
 33 83  1  0
 34 84  1  0
 42 85  1  0
 43 86  1  0
 44 87  1  0
 45 88  1  0
 49 89  1  0
 51 90  1  0
 51 91  1  0
 51 92  1  0
 52 93  1  0
 54 94  1  0
 54 95  1  0
 54 96  1  0
 55 97  1  0
 56 98  1  0
M  CHG  2  35   1  36  -1
M  END
