
     RDKit          3D

 35 39  0  0  0  0  0  0  0  0999 V2000
    4.4969   -1.5255   -0.5198 C   0  0  0  0  0  0  0  0  0  0  0  0
    3.6891   -1.3731   -1.6259 C   0  0  0  0  0  0  0  0  0  0  0  0
    2.4556   -0.7597   -1.5557 C   0  0  0  0  0  0  0  0  0  0  0  0
    1.9955   -0.2717   -0.3326 C   0  0  0  0  0  0  0  0  0  0  0  0
    0.3923    0.5599   -0.0832 P   0  0  0  0  0  0  0  0  0  0  0  0
    0.0107    2.2529    0.0225 C   0  0  0  0  0  0  0  0  0  0  0  0
    0.8073    3.3790   -0.0612 C   0  0  0  0  0  0  0  0  0  0  0  0
    0.2070    4.6131    0.0630 C   0  0  0  0  0  0  0  0  0  0  0  0
   -1.1410    4.6482    0.2616 C   0  0  0  0  0  0  0  0  0  0  0  0
   -1.8942    3.5176    0.3388 C   0  0  0  0  0  0  0  0  0  0  0  0
   -1.3414    2.2291    0.2200 C   0  0  0  0  0  0  0  0  0  0  0  0
   -1.9429    1.0120    0.2724 C   0  0  0  0  0  0  0  0  0  0  0  0
   -3.5385    0.3772    0.4877 S   0  0  0  0  0  0  0  0  0  0  0  0
   -3.1934   -1.3098    0.3876 C   0  0  0  0  0  0  0  0  0  0  0  0
   -3.9870   -2.4563    0.4702 C   0  0  0  0  0  0  0  0  0  0  0  0
   -3.3855   -3.6907    0.3458 C   0  0  0  0  0  0  0  0  0  0  0  0
   -2.0279   -3.7371    0.1455 C   0  0  0  0  0  0  0  0  0  0  0  0
   -1.2938   -2.6016    0.0712 C   0  0  0  0  0  0  0  0  0  0  0  0
   -1.8438   -1.3065    0.1898 C   0  0  0  0  0  0  0  0  0  0  0  0
   -1.2336   -0.0907    0.1361 C   0  0  0  0  0  0  0  0  0  0  0  0
    2.8287   -0.4418    0.7486 C   0  0  0  0  0  0  0  0  0  0  0  0
    4.0502   -1.0471    0.6894 C   0  0  0  0  0  0  0  0  0  0  0  0
    5.4794   -2.0187   -0.5965 H   0  0  0  0  0  0  0  0  0  0  0  0
    4.0529   -1.7567   -2.5829 H   0  0  0  0  0  0  0  0  0  0  0  0
    1.8066   -0.6288   -2.4054 H   0  0  0  0  0  0  0  0  0  0  0  0
    1.8733    3.2530   -0.2212 H   0  0  0  0  0  0  0  0  0  0  0  0
    0.8356    5.4913   -0.0033 H   0  0  0  0  0  0  0  0  0  0  0  0
   -1.6131    5.6455    0.3601 H   0  0  0  0  0  0  0  0  0  0  0  0
   -2.9526    3.6763    0.4986 H   0  0  0  0  0  0  0  0  0  0  0  0
   -5.0368   -2.3146    0.6283 H   0  0  0  0  0  0  0  0  0  0  0  0
   -3.9607   -4.6030    0.4034 H   0  0  0  0  0  0  0  0  0  0  0  0
   -1.5823   -4.7319    0.0510 H   0  0  0  0  0  0  0  0  0  0  0  0
   -0.2204   -2.7413   -0.0902 H   0  0  0  0  0  0  0  0  0  0  0  0
    2.5043   -0.0721    1.7295 H   0  0  0  0  0  0  0  0  0  0  0  0
    4.7035   -1.1762    1.5566 H   0  0  0  0  0  0  0  0  0  0  0  0
  1  2  2  0
  2  3  1  0
  3  4  2  0
  4  5  1  0
  5  6  1  0
  6  7  2  0
  7  8  1  0
  8  9  2  0
  9 10  1  0
 10 11  2  0
 11 12  1  0
 12 13  1  0
 13 14  1  0
 14 15  2  0
 15 16  1  0
 16 17  2  0
 17 18  1  0
 18 19  2  0
 19 20  1  0
  4 21  1  0
 21 22  2  0
 22  1  1  0
 20  5  1  0
 11  6  1  0
 20 12  2  0
 19 14  1  0
  1 23  1  0
  2 24  1  0
  3 25  1  0
  7 26  1  0
  8 27  1  0
  9 28  1  0
 10 29  1  0
 15 30  1  0
 16 31  1  0
 17 32  1  0
 18 33  1  0
 21 34  1  0
 22 35  1  0
M  END
