
     RDKit          3D

 51 52  0  0  0  0  0  0  0  0999 V2000
    6.2219   -0.2637   -1.5231 C   0  0  0  0  0  0  0  0  0  0  0  0
    5.3872    0.7575   -0.9454 N   0  0  0  0  0  0  0  0  0  0  0  0
    5.9158    2.0826   -0.5872 C   0  0  0  0  0  0  0  0  0  0  0  0
    6.8151    1.9669    0.6153 C   0  0  0  0  0  0  0  0  0  0  0  0
    7.3173    3.2285    0.9358 O   0  0  0  0  0  0  0  0  0  0  0  0
    4.0009    0.4865   -0.6791 C   0  0  0  0  0  0  0  0  0  0  0  0
    3.0305    0.9105   -1.5409 C   0  0  0  0  0  0  0  0  0  0  0  0
    1.6821    0.6802   -1.2101 C   0  0  0  0  0  0  0  0  0  0  0  0
    1.2774    0.0539   -0.0779 C   0  0  0  0  0  0  0  0  0  0  0  0
   -0.0960   -0.1652    0.2886 C   0  0  0  0  0  0  0  0  0  0  0  0
   -1.1099    0.2257   -0.4486 C   0  0  0  0  0  0  0  0  0  0  0  0
   -2.4625   -0.0060   -0.0698 C   0  0  0  0  0  0  0  0  0  0  0  0
   -3.5487    0.3928   -0.8215 C   0  0  0  0  0  0  0  0  0  0  0  0
   -4.7494    0.1641   -0.4265 C   0  0  0  0  0  0  0  0  0  0  0  0
   -5.8643    0.8561    0.0762 C   0  0  0  0  0  0  0  0  0  0  0  0
   -5.7887    2.1329    0.2506 C   0  0  0  0  0  0  0  0  0  0  0  0
   -5.6999    3.4887    0.4200 N   0  0  0  0  0  0  0  0  0  0  0  0
   -7.0744    0.0817    0.3226 C   0  0  0  0  0  0  0  0  0  0  0  0
   -7.9962   -0.5105    0.5303 N   0  0  0  0  0  0  0  0  0  0  0  0
   -4.9820   -1.3970   -0.1617 C   0  0  0  0  0  0  0  0  0  0  0  0
   -4.0175   -1.6575    0.9816 C   0  0  0  0  0  0  0  0  0  0  0  0
   -4.8095   -1.5037    2.3067 C   0  0  0  0  0  0  0  0  0  0  0  0
   -3.5926   -3.1263    0.8749 C   0  0  0  0  0  0  0  0  0  0  0  0
   -2.8271   -0.7917    1.1204 C   0  0  0  0  0  0  0  0  0  0  0  0
    2.3041   -0.3759    0.7977 C   0  0  0  0  0  0  0  0  0  0  0  0
    3.6345   -0.1628    0.5010 C   0  0  0  0  0  0  0  0  0  0  0  0
    5.8354   -0.6218   -2.5070 H   0  0  0  0  0  0  0  0  0  0  0  0
    7.2661    0.1584   -1.6126 H   0  0  0  0  0  0  0  0  0  0  0  0
    6.2232   -1.1344   -0.7967 H   0  0  0  0  0  0  0  0  0  0  0  0
    6.4526    2.5695   -1.4286 H   0  0  0  0  0  0  0  0  0  0  0  0
    5.0414    2.7285   -0.3389 H   0  0  0  0  0  0  0  0  0  0  0  0
    6.1546    1.6879    1.4779 H   0  0  0  0  0  0  0  0  0  0  0  0
    7.6172    1.2331    0.4755 H   0  0  0  0  0  0  0  0  0  0  0  0
    7.3383    3.3293    1.9340 H   0  0  0  0  0  0  0  0  0  0  0  0
    3.2906    1.4088   -2.4642 H   0  0  0  0  0  0  0  0  0  0  0  0
    0.9789    1.0562   -1.9556 H   0  0  0  0  0  0  0  0  0  0  0  0
   -0.3203   -0.6740    1.2415 H   0  0  0  0  0  0  0  0  0  0  0  0
   -0.8727    0.7312   -1.3896 H   0  0  0  0  0  0  0  0  0  0  0  0
   -3.3197    1.0073   -1.7453 H   0  0  0  0  0  0  0  0  0  0  0  0
   -4.7394   -1.8765   -1.0899 H   0  0  0  0  0  0  0  0  0  0  0  0
   -6.0270   -1.5332    0.0622 H   0  0  0  0  0  0  0  0  0  0  0  0
   -4.2515   -2.0525    3.1103 H   0  0  0  0  0  0  0  0  0  0  0  0
   -4.8391   -0.4242    2.5691 H   0  0  0  0  0  0  0  0  0  0  0  0
   -5.8229   -1.8706    2.1529 H   0  0  0  0  0  0  0  0  0  0  0  0
   -3.7042   -3.4355   -0.1947 H   0  0  0  0  0  0  0  0  0  0  0  0
   -4.2648   -3.7326    1.5010 H   0  0  0  0  0  0  0  0  0  0  0  0
   -2.5554   -3.2522    1.2114 H   0  0  0  0  0  0  0  0  0  0  0  0
   -1.9443   -1.4201    1.4761 H   0  0  0  0  0  0  0  0  0  0  0  0
   -2.9787   -0.0616    1.9578 H   0  0  0  0  0  0  0  0  0  0  0  0
    2.0280   -0.8848    1.7039 H   0  0  0  0  0  0  0  0  0  0  0  0
    4.4459   -0.4845    1.1330 H   0  0  0  0  0  0  0  0  0  0  0  0
  1  2  1  0
  2  3  1  0
  3  4  1  0
  4  5  1  0
  2  6  1  0
  6  7  2  0
  7  8  1  0
  8  9  2  0
  9 10  1  0
 10 11  2  0
 11 12  1  0
 12 13  2  0
 13 14  1  0
 14 15  2  3
 15 16  1  0
 16 17  3  0
 15 18  1  0
 18 19  3  0
 14 20  1  0
 20 21  1  0
 21 22  1  0
 21 23  1  0
 21 24  1  0
  9 25  1  0
 25 26  2  0
 26  6  1  0
 24 12  1  0
  1 27  1  0
  1 28  1  0
  1 29  1  0
  3 30  1  0
  3 31  1  0
  4 32  1  0
  4 33  1  0
  5 34  1  0
  7 35  1  0
  8 36  1  0
 10 37  1  0
 11 38  1  0
 13 39  1  0
 20 40  1  0
 20 41  1  0
 22 42  1  0
 22 43  1  0
 22 44  1  0
 23 45  1  0
 23 46  1  0
 23 47  1  0
 24 48  1  0
 24 49  1  0
 25 50  1  0
 26 51  1  0
M  END
