
     RDKit          3D

 46 49  0  0  0  0  0  0  0  0999 V2000
   -6.3148    2.8043    0.1663 C   0  0  0  0  0  0  0  0  0  0  0  0
   -6.4078    1.4038    0.0984 O   0  0  0  0  0  0  0  0  0  0  0  0
   -5.2567    0.6132    0.0669 C   0  0  0  0  0  0  0  0  0  0  0  0
   -4.0056    1.1629    0.1005 C   0  0  0  0  0  0  0  0  0  0  0  0
   -2.8854    0.3673    0.0686 C   0  0  0  0  0  0  0  0  0  0  0  0
   -1.5084    0.6190    0.0886 C   0  0  0  0  0  0  0  0  0  0  0  0
   -0.8476   -0.5885    0.0343 C   0  0  0  0  0  0  0  0  0  0  0  0
    0.6144   -0.7535    0.0347 C   0  0  0  0  0  0  0  0  0  0  0  0
    1.4378    0.3396    0.0920 C   0  0  0  0  0  0  0  0  0  0  0  0
    2.7943    0.1202    0.0892 C   0  0  0  0  0  0  0  0  0  0  0  0
    3.6752    1.1883    0.1456 C   0  0  0  0  0  0  0  0  0  0  0  0
    5.0439    1.0210    0.1453 C   0  0  0  0  0  0  0  0  0  0  0  0
    5.9319    2.0953    0.2021 O   0  0  0  0  0  0  0  0  0  0  0  0
    5.3908    3.4006    0.2618 C   0  0  0  0  0  0  0  0  0  0  0  0
    5.5150   -0.2866    0.0851 C   0  0  0  0  0  0  0  0  0  0  0  0
    6.8827   -0.5002    0.0827 O   0  0  0  0  0  0  0  0  0  0  0  0
    7.3654   -1.8224    0.0218 C   0  0  0  0  0  0  0  0  0  0  0  0
    4.6447   -1.3442    0.0293 C   0  0  0  0  0  0  0  0  0  0  0  0
    3.2759   -1.1745    0.0296 C   0  0  0  0  0  0  0  0  0  0  0  0
    2.4640   -2.2116   -0.0249 O   0  0  0  0  0  0  0  0  0  0  0  0
    1.1557   -2.0228   -0.0233 C   0  0  0  0  0  0  0  0  0  0  0  0
    0.3448   -2.9908   -0.0745 O   0  0  0  0  0  0  0  0  0  0  0  0
   -1.7525   -1.5091   -0.0152 O   0  0  0  0  0  0  0  0  0  0  0  0
   -2.9678   -1.0146    0.0017 C   0  0  0  0  0  0  0  0  0  0  0  0
   -4.2409   -1.5575   -0.0317 C   0  0  0  0  0  0  0  0  0  0  0  0
   -5.3684   -0.7566    0.0004 C   0  0  0  0  0  0  0  0  0  0  0  0
   -6.6250   -1.3115   -0.0335 O   0  0  0  0  0  0  0  0  0  0  0  0
   -6.8210   -2.7190   -0.1024 C   0  0  0  0  0  0  0  0  0  0  0  0
   -7.3309    3.2124   -0.0141 H   0  0  0  0  0  0  0  0  0  0  0  0
   -5.6498    3.2144   -0.6272 H   0  0  0  0  0  0  0  0  0  0  0  0
   -5.9947    3.1783    1.1495 H   0  0  0  0  0  0  0  0  0  0  0  0
   -3.8882    2.2312    0.1526 H   0  0  0  0  0  0  0  0  0  0  0  0
   -1.0519    1.5878    0.1378 H   0  0  0  0  0  0  0  0  0  0  0  0
    1.0469    1.3496    0.1383 H   0  0  0  0  0  0  0  0  0  0  0  0
    3.2484    2.1960    0.1916 H   0  0  0  0  0  0  0  0  0  0  0  0
    4.6344    3.3994    1.0833 H   0  0  0  0  0  0  0  0  0  0  0  0
    6.1958    4.1275    0.5278 H   0  0  0  0  0  0  0  0  0  0  0  0
    4.8602    3.6856   -0.6729 H   0  0  0  0  0  0  0  0  0  0  0  0
    7.0948   -2.2432   -0.9684 H   0  0  0  0  0  0  0  0  0  0  0  0
    6.8645   -2.4719    0.7931 H   0  0  0  0  0  0  0  0  0  0  0  0
    8.4518   -1.8864    0.2360 H   0  0  0  0  0  0  0  0  0  0  0  0
    4.9910   -2.3861   -0.0189 H   0  0  0  0  0  0  0  0  0  0  0  0
   -4.3251   -2.6228   -0.0835 H   0  0  0  0  0  0  0  0  0  0  0  0
   -6.1491   -3.1782    0.6484 H   0  0  0  0  0  0  0  0  0  0  0  0
   -6.6406   -3.0793   -1.1228 H   0  0  0  0  0  0  0  0  0  0  0  0
   -7.8922   -2.8862    0.1619 H   0  0  0  0  0  0  0  0  0  0  0  0
  1  2  1  0
  2  3  1  0
  3  4  2  0
  4  5  1  0
  5  6  1  0
  6  7  2  0
  7  8  1  0
  8  9  2  0
  9 10  1  0
 10 11  2  0
 11 12  1  0
 12 13  1  0
 13 14  1  0
 12 15  2  0
 15 16  1  0
 16 17  1  0
 15 18  1  0
 18 19  2  0
 19 20  1  0
 20 21  1  0
 21 22  2  0
  7 23  1  0
 23 24  1  0
 24 25  1  0
 25 26  2  0
 26 27  1  0
 27 28  1  0
 26  3  1  0
 24  5  2  0
 21  8  1  0
 19 10  1  0
  1 29  1  0
  1 30  1  0
  1 31  1  0
  4 32  1  0
  6 33  1  0
  9 34  1  0
 11 35  1  0
 14 36  1  0
 14 37  1  0
 14 38  1  0
 17 39  1  0
 17 40  1  0
 17 41  1  0
 18 42  1  0
 25 43  1  0
 28 44  1  0
 28 45  1  0
 28 46  1  0
M  END
