
     RDKit          3D

 48 52  0  0  0  0  0  0  0  0999 V2000
    4.4072   -0.1061    1.1305 C   0  0  0  0  0  0  0  0  0  0  0  0
    3.8010    0.6850    0.0150 C   0  0  0  0  0  0  0  0  0  0  0  0
    4.9648    1.2869   -0.7843 C   0  0  0  0  0  0  0  0  0  0  0  0
    2.9746    1.8551    0.4956 C   0  0  0  0  0  0  0  0  0  0  0  0
    1.6054    1.4827    0.8438 C   0  0  0  0  0  0  0  0  0  0  0  0
    0.9650    2.2033    1.6462 O   0  0  0  0  0  0  0  0  0  0  0  0
    0.9268    0.2815    0.2902 C   0  0  0  0  0  0  0  0  0  0  0  0
    1.6393   -0.4765   -0.5070 C   0  0  0  0  0  0  0  0  0  0  0  0
    3.0555   -0.2180   -0.8957 C   0  0  0  0  0  0  0  0  0  0  0  0
    1.0774   -1.6189   -1.0471 O   0  0  0  0  0  0  0  0  0  0  0  0
   -0.2342   -1.9970   -0.7633 C   0  0  0  0  0  0  0  0  0  0  0  0
   -0.7290   -3.1736   -1.3398 C   0  0  0  0  0  0  0  0  0  0  0  0
   -1.9916   -3.5892   -1.0848 C   0  0  0  0  0  0  0  0  0  0  0  0
   -2.7749   -2.8334   -0.2487 C   0  0  0  0  0  0  0  0  0  0  0  0
   -4.0451   -3.2924    0.0050 C   0  0  0  0  0  0  0  0  0  0  0  0
   -4.8628   -2.5948    0.8412 C   0  0  0  0  0  0  0  0  0  0  0  0
   -4.3872   -1.4176    1.4284 C   0  0  0  0  0  0  0  0  0  0  0  0
   -3.1162   -0.9421    1.1851 C   0  0  0  0  0  0  0  0  0  0  0  0
   -2.2998   -1.6533    0.3374 C   0  0  0  0  0  0  0  0  0  0  0  0
   -1.0011   -1.2107    0.0804 C   0  0  0  0  0  0  0  0  0  0  0  0
   -0.5131    0.0817    0.6395 C   0  0  0  0  0  0  0  0  0  0  0  0
   -1.2385    1.2307   -0.0445 C   0  0  0  0  0  0  0  0  0  0  0  0
   -1.8106    2.2783    0.6269 C   0  0  0  0  0  0  0  0  0  0  0  0
   -2.4594    3.3115   -0.0151 C   0  0  0  0  0  0  0  0  0  0  0  0
   -2.5312    3.2791   -1.4097 C   0  0  0  0  0  0  0  0  0  0  0  0
   -1.9517    2.2203   -2.0657 C   0  0  0  0  0  0  0  0  0  0  0  0
   -1.3275    1.2335   -1.3837 N   0  0  0  0  0  0  0  0  0  0  0  0
    5.3666   -0.5603    0.7472 H   0  0  0  0  0  0  0  0  0  0  0  0
    3.7943   -0.9650    1.4608 H   0  0  0  0  0  0  0  0  0  0  0  0
    4.7320    0.5421    1.9878 H   0  0  0  0  0  0  0  0  0  0  0  0
    5.4702    0.4875   -1.3637 H   0  0  0  0  0  0  0  0  0  0  0  0
    4.5519    2.0053   -1.5398 H   0  0  0  0  0  0  0  0  0  0  0  0
    5.6823    1.7970   -0.1111 H   0  0  0  0  0  0  0  0  0  0  0  0
    2.9402    2.6047   -0.3217 H   0  0  0  0  0  0  0  0  0  0  0  0
    3.5343    2.3203    1.3333 H   0  0  0  0  0  0  0  0  0  0  0  0
    3.5743   -1.2082   -0.8854 H   0  0  0  0  0  0  0  0  0  0  0  0
    3.0681    0.2256   -1.9309 H   0  0  0  0  0  0  0  0  0  0  0  0
   -0.0873   -3.7381   -1.9869 H   0  0  0  0  0  0  0  0  0  0  0  0
   -2.3317   -4.5058   -1.5543 H   0  0  0  0  0  0  0  0  0  0  0  0
   -4.4316   -4.2169   -0.4498 H   0  0  0  0  0  0  0  0  0  0  0  0
   -5.8522   -2.9674    1.0280 H   0  0  0  0  0  0  0  0  0  0  0  0
   -5.0066   -0.8452    2.0926 H   0  0  0  0  0  0  0  0  0  0  0  0
   -2.7514   -0.0568    1.6521 H   0  0  0  0  0  0  0  0  0  0  0  0
   -0.7033    0.0854    1.7240 H   0  0  0  0  0  0  0  0  0  0  0  0
   -1.7607    2.3067    1.7205 H   0  0  0  0  0  0  0  0  0  0  0  0
   -2.9005    4.1242    0.5459 H   0  0  0  0  0  0  0  0  0  0  0  0
   -3.0417    4.0922   -1.9127 H   0  0  0  0  0  0  0  0  0  0  0  0
   -1.9903    2.1665   -3.1430 H   0  0  0  0  0  0  0  0  0  0  0  0
  1  2  1  0
  2  3  1  0
  2  4  1  0
  4  5  1  0
  5  6  2  0
  5  7  1  0
  7  8  2  0
  8  9  1  0
  8 10  1  0
 10 11  1  0
 11 12  2  0
 12 13  1  0
 13 14  2  0
 14 15  1  0
 15 16  2  0
 16 17  1  0
 17 18  2  0
 18 19  1  0
 19 20  2  0
 20 21  1  0
 21 22  1  0
 22 23  2  0
 23 24  1  0
 24 25  2  0
 25 26  1  0
 26 27  2  0
  9  2  1  0
 20 11  1  0
 27 22  1  0
 21  7  1  0
 19 14  1  0
  1 28  1  0
  1 29  1  0
  1 30  1  0
  3 31  1  0
  3 32  1  0
  3 33  1  0
  4 34  1  0
  4 35  1  0
  9 36  1  0
  9 37  1  0
 12 38  1  0
 13 39  1  0
 15 40  1  0
 16 41  1  0
 17 42  1  0
 18 43  1  0
 21 44  1  0
 23 45  1  0
 24 46  1  0
 25 47  1  0
 26 48  1  0
M  END
