
     RDKit          3D

 33 35  0  0  0  0  0  0  0  0999 V2000
   -0.3145    0.3063   -3.4799 N   0  0  0  0  0  0  0  0  0  0  0  0
    0.4371    0.2585   -2.5842 C   0  0  0  0  0  0  0  0  0  0  0  0
    1.3703    0.2055   -1.4882 C   0  0  0  0  0  0  0  0  0  0  0  0
    2.6457    0.6760   -1.7052 C   0  0  0  0  0  0  0  0  0  0  0  0
    3.0481    1.1991   -2.9566 N   0  0  0  0  0  0  0  0  0  0  0  0
    3.4958    0.6075   -0.6431 N   0  0  0  0  0  0  0  0  0  0  0  0
    3.1208    0.1117    0.5495 C   0  0  0  0  0  0  0  0  0  0  0  0
    4.0096    0.0386    1.6649 N   0  0  0  0  0  0  0  0  0  0  0  0
    1.8400   -0.3567    0.7545 C   0  0  0  0  0  0  0  0  0  0  0  0
    1.4237   -0.8867    2.0139 C   0  0  0  0  0  0  0  0  0  0  0  0
    1.0883   -1.3244    3.0287 N   0  0  0  0  0  0  0  0  0  0  0  0
    0.9293   -0.3134   -0.2886 C   0  0  0  0  0  0  0  0  0  0  0  0
   -0.4223   -0.7980   -0.1027 C   0  0  0  0  0  0  0  0  0  0  0  0
   -0.7089   -2.1167   -0.3619 C   0  0  0  0  0  0  0  0  0  0  0  0
   -2.0023   -2.6210   -0.1939 C   0  0  0  0  0  0  0  0  0  0  0  0
   -3.0069   -1.7838    0.2384 C   0  0  0  0  0  0  0  0  0  0  0  0
   -2.7344   -0.4616    0.5016 C   0  0  0  0  0  0  0  0  0  0  0  0
   -3.7275    0.4013    0.9376 C   0  0  0  0  0  0  0  0  0  0  0  0
   -3.4699    1.7179    1.2028 C   0  0  0  0  0  0  0  0  0  0  0  0
   -2.1908    2.2146    1.0362 C   0  0  0  0  0  0  0  0  0  0  0  0
   -1.2069    1.3577    0.6038 C   0  0  0  0  0  0  0  0  0  0  0  0
   -1.4321    0.0262    0.3276 C   0  0  0  0  0  0  0  0  0  0  0  0
    2.9083    0.6181   -3.7985 H   0  0  0  0  0  0  0  0  0  0  0  0
    3.4724    2.1347   -3.0484 H   0  0  0  0  0  0  0  0  0  0  0  0
    4.0186   -0.7955    2.3123 H   0  0  0  0  0  0  0  0  0  0  0  0
    4.6898    0.8018    1.8931 H   0  0  0  0  0  0  0  0  0  0  0  0
    0.0471   -2.8120   -0.7032 H   0  0  0  0  0  0  0  0  0  0  0  0
   -2.2182   -3.6654   -0.4017 H   0  0  0  0  0  0  0  0  0  0  0  0
   -4.0277   -2.1630    0.3755 H   0  0  0  0  0  0  0  0  0  0  0  0
   -4.7390    0.0489    1.0793 H   0  0  0  0  0  0  0  0  0  0  0  0
   -4.2292    2.4080    1.5436 H   0  0  0  0  0  0  0  0  0  0  0  0
   -1.9254    3.2432    1.2290 H   0  0  0  0  0  0  0  0  0  0  0  0
   -0.1891    1.7226    0.4638 H   0  0  0  0  0  0  0  0  0  0  0  0
  1  2  3  0
  2  3  1  0
  3  4  2  0
  4  5  1  0
  4  6  1  0
  6  7  2  0
  7  8  1  0
  7  9  1  0
  9 10  1  0
 10 11  3  0
  9 12  2  0
 12 13  1  0
 13 14  2  0
 14 15  1  0
 15 16  2  0
 16 17  1  0
 17 18  2  0
 18 19  1  0
 19 20  2  0
 20 21  1  0
 21 22  2  0
 12  3  1  0
 22 13  1  0
 22 17  1  0
  5 23  1  0
  5 24  1  0
  8 25  1  0
  8 26  1  0
 14 27  1  0
 15 28  1  0
 16 29  1  0
 18 30  1  0
 19 31  1  0
 20 32  1  0
 21 33  1  0
M  END
