
     RDKit          3D

 80 84  0  0  0  0  0  0  0  0999 V2000
    7.0232   -3.9351   -3.0014 C   0  0  0  0  0  0  0  0  0  0  0  0
    5.8870   -2.9844   -3.2301 C   0  0  0  0  0  0  0  0  0  0  0  0
    6.1194   -1.8313   -3.9401 C   0  0  0  0  0  0  0  0  0  0  0  0
    5.0641   -0.9196   -4.1388 C   0  0  0  0  0  0  0  0  0  0  0  0
    3.8234   -1.1814   -3.6310 C   0  0  0  0  0  0  0  0  0  0  0  0
    2.7306   -0.1543   -3.7765 C   0  0  0  0  0  0  0  0  0  0  0  0
    2.6042    0.4961   -2.4496 N   0  0  0  0  0  0  0  0  0  0  0  0
    3.7658    1.2770   -2.0771 C   0  0  0  0  0  0  0  0  0  0  0  0
    3.7781    1.5616   -0.5992 C   0  0  0  0  0  0  0  0  0  0  0  0
    4.0673    0.5263    0.2827 C   0  0  0  0  0  0  0  0  0  0  0  0
    4.0995    0.7297    1.6483 C   0  0  0  0  0  0  0  0  0  0  0  0
    3.8435    1.9788    2.1670 C   0  0  0  0  0  0  0  0  0  0  0  0
    3.8935    2.1825    3.6543 C   0  0  0  0  0  0  0  0  0  0  0  0
    3.5564    3.0099    1.2876 C   0  0  0  0  0  0  0  0  0  0  0  0
    3.5220    2.8078   -0.0849 C   0  0  0  0  0  0  0  0  0  0  0  0
    1.4365    0.3507   -1.6325 C   0  0  0  0  0  0  0  0  0  0  0  0
    1.4253   -0.6325   -0.6769 N   0  0  0  0  0  0  0  0  0  0  0  0
    0.3376   -0.8145    0.0938 C   0  0  0  0  0  0  0  0  0  0  0  0
    0.4394   -1.8463    1.0663 C   0  0  0  0  0  0  0  0  0  0  0  0
    0.5393   -2.6886    1.8778 N   0  0  0  0  0  0  0  0  0  0  0  0
   -0.7927   -0.0475   -0.0263 C   0  0  0  0  0  0  0  0  0  0  0  0
   -1.9122   -0.3672    0.8350 N   0  0  0  0  0  0  0  0  0  0  0  0
   -2.6123   -1.5555    0.7063 C   0  0  0  0  0  0  0  0  0  0  0  0
   -3.8041   -1.9487    1.4424 C   0  0  0  0  0  0  0  0  0  0  0  0
   -4.6514   -1.1652    2.1916 C   0  0  0  0  0  0  0  0  0  0  0  0
   -5.7861   -1.6839    2.8418 C   0  0  0  0  0  0  0  0  0  0  0  0
   -6.0734   -3.0044    2.7354 C   0  0  0  0  0  0  0  0  0  0  0  0
   -7.2512   -3.6343    3.3692 C   0  0  0  0  0  0  0  0  0  0  0  0
   -5.2406   -3.8365    1.9812 C   0  0  0  0  0  0  0  0  0  0  0  0
   -4.1432   -3.3126    1.3614 C   0  0  0  0  0  0  0  0  0  0  0  0
   -2.2076    0.6368    1.8070 C   0  0  0  0  0  0  0  0  0  0  0  0
   -3.0515    1.7522    1.3259 C   0  0  0  0  0  0  0  0  0  0  0  0
   -3.3234    2.7675    2.2261 C   0  0  0  0  0  0  0  0  0  0  0  0
   -4.1725    3.8165    1.8308 C   0  0  0  0  0  0  0  0  0  0  0  0
   -4.7279    3.8475    0.5837 C   0  0  0  0  0  0  0  0  0  0  0  0
   -5.6417    4.8803    0.0638 C   0  0  0  0  0  0  0  0  0  0  0  0
   -4.4317    2.8079   -0.3047 C   0  0  0  0  0  0  0  0  0  0  0  0
   -3.6053    1.7902    0.0845 C   0  0  0  0  0  0  0  0  0  0  0  0
   -0.7553    0.8946   -0.9545 N   0  0  0  0  0  0  0  0  0  0  0  0
    0.3257    1.1169   -1.7585 C   0  0  0  0  0  0  0  0  0  0  0  0
    0.2799    2.2061   -2.6771 C   0  0  0  0  0  0  0  0  0  0  0  0
    0.2339    3.1216   -3.4692 N   0  0  0  0  0  0  0  0  0  0  0  0
    3.5766   -2.3182   -2.9295 C   0  0  0  0  0  0  0  0  0  0  0  0
    4.6277   -3.2390   -2.7230 C   0  0  0  0  0  0  0  0  0  0  0  0
    7.7833   -3.7349   -3.7823 H   0  0  0  0  0  0  0  0  0  0  0  0
    7.4681   -3.6783   -2.0077 H   0  0  0  0  0  0  0  0  0  0  0  0
    6.7197   -4.9920   -3.0504 H   0  0  0  0  0  0  0  0  0  0  0  0
    7.1235   -1.6391   -4.3390 H   0  0  0  0  0  0  0  0  0  0  0  0
    5.2962   -0.0289   -4.6994 H   0  0  0  0  0  0  0  0  0  0  0  0
    3.0720    0.6052   -4.4853 H   0  0  0  0  0  0  0  0  0  0  0  0
    1.7653   -0.5906   -4.0468 H   0  0  0  0  0  0  0  0  0  0  0  0
    3.7192    2.2737   -2.6237 H   0  0  0  0  0  0  0  0  0  0  0  0
    4.6711    0.7325   -2.3740 H   0  0  0  0  0  0  0  0  0  0  0  0
    4.2702   -0.4588   -0.1601 H   0  0  0  0  0  0  0  0  0  0  0  0
    4.3249   -0.1141    2.3164 H   0  0  0  0  0  0  0  0  0  0  0  0
    4.9503    2.2196    3.9981 H   0  0  0  0  0  0  0  0  0  0  0  0
    3.3956    1.3278    4.1422 H   0  0  0  0  0  0  0  0  0  0  0  0
    3.3842    3.1432    3.8507 H   0  0  0  0  0  0  0  0  0  0  0  0
    3.3636    3.9722    1.7310 H   0  0  0  0  0  0  0  0  0  0  0  0
    3.2912    3.6274   -0.7562 H   0  0  0  0  0  0  0  0  0  0  0  0
   -1.9027   -2.4591    0.6156 H   0  0  0  0  0  0  0  0  0  0  0  0
   -2.9894   -1.5629   -0.3958 H   0  0  0  0  0  0  0  0  0  0  0  0
   -4.5422   -0.1152    2.3253 H   0  0  0  0  0  0  0  0  0  0  0  0
   -6.4390   -1.0476    3.4241 H   0  0  0  0  0  0  0  0  0  0  0  0
   -7.8418   -2.8926    3.9466 H   0  0  0  0  0  0  0  0  0  0  0  0
   -6.9209   -4.4105    4.0794 H   0  0  0  0  0  0  0  0  0  0  0  0
   -7.8823   -4.1185    2.6005 H   0  0  0  0  0  0  0  0  0  0  0  0
   -5.4568   -4.8973    1.8902 H   0  0  0  0  0  0  0  0  0  0  0  0
   -3.5116   -3.9446    0.7860 H   0  0  0  0  0  0  0  0  0  0  0  0
   -1.2087    1.1970    2.0791 H   0  0  0  0  0  0  0  0  0  0  0  0
   -2.4725    0.2170    2.7746 H   0  0  0  0  0  0  0  0  0  0  0  0
   -2.9336    2.8213    3.2189 H   0  0  0  0  0  0  0  0  0  0  0  0
   -4.4156    4.6264    2.5058 H   0  0  0  0  0  0  0  0  0  0  0  0
   -6.6437    4.4146   -0.1634 H   0  0  0  0  0  0  0  0  0  0  0  0
   -5.7647    5.7566    0.7162 H   0  0  0  0  0  0  0  0  0  0  0  0
   -5.2729    5.2453   -0.9078 H   0  0  0  0  0  0  0  0  0  0  0  0
   -4.8456    2.7780   -1.3198 H   0  0  0  0  0  0  0  0  0  0  0  0
   -3.4146    1.0101   -0.6074 H   0  0  0  0  0  0  0  0  0  0  0  0
    2.6152   -2.5959   -2.5033 H   0  0  0  0  0  0  0  0  0  0  0  0
    4.4289   -4.1445   -2.1612 H   0  0  0  0  0  0  0  0  0  0  0  0
  1  2  1  0
  2  3  2  0
  3  4  1  0
  4  5  2  0
  5  6  1  0
  6  7  1  0
  7  8  1  0
  8  9  1  0
  9 10  2  0
 10 11  1  0
 11 12  2  0
 12 13  1  0
 12 14  1  0
 14 15  2  0
  7 16  1  0
 16 17  2  0
 17 18  1  0
 18 19  1  0
 19 20  3  0
 18 21  2  0
 21 22  1  0
 22 23  1  0
 23 24  1  0
 24 25  2  0
 25 26  1  0
 26 27  2  0
 27 28  1  0
 27 29  1  0
 29 30  2  0
 22 31  1  0
 31 32  1  0
 32 33  2  0
 33 34  1  0
 34 35  2  0
 35 36  1  0
 35 37  1  0
 37 38  2  0
 21 39  1  0
 39 40  2  0
 40 41  1  0
 41 42  3  0
  5 43  1  0
 43 44  2  0
 44  2  1  0
 15  9  1  0
 40 16  1  0
 30 24  1  0
 38 32  1  0
  1 45  1  0
  1 46  1  0
  1 47  1  0
  3 48  1  0
  4 49  1  0
  6 50  1  0
  6 51  1  0
  8 52  1  0
  8 53  1  0
 10 54  1  0
 11 55  1  0
 13 56  1  0
 13 57  1  0
 13 58  1  0
 14 59  1  0
 15 60  1  0
 23 61  1  0
 23 62  1  0
 25 63  1  0
 26 64  1  0
 28 65  1  0
 28 66  1  0
 28 67  1  0
 29 68  1  0
 30 69  1  0
 31 70  1  0
 31 71  1  0
 33 72  1  0
 34 73  1  0
 36 74  1  0
 36 75  1  0
 36 76  1  0
 37 77  1  0
 38 78  1  0
 43 79  1  0
 44 80  1  0
M  END
