
     RDKit          3D

 75 80  0  0  0  0  0  0  0  0999 V2000
   -6.3976    3.1781   -0.0520 C   0  0  0  0  0  0  0  0  0  0  0  0
   -4.9307    3.2486   -0.4741 C   0  0  0  0  0  0  0  0  0  0  0  0
   -4.9429    3.7282   -1.9252 C   0  0  0  0  0  0  0  0  0  0  0  0
   -4.2654    4.3132    0.3640 C   0  0  0  0  0  0  0  0  0  0  0  0
   -4.2964    1.9278   -0.3482 C   0  0  0  0  0  0  0  0  0  0  0  0
   -3.0192    1.6912   -0.2514 C   0  0  0  0  0  0  0  0  0  0  0  0
   -2.4722    0.3242   -0.1280 C   0  0  0  0  0  0  0  0  0  0  0  0
   -1.2086    0.0340   -0.0286 N   0  0  0  0  0  4  0  0  0  0  0  0
   -1.1119   -1.3574    0.0675 C   0  0  0  0  0  0  0  0  0  0  0  0
    0.0750   -1.9579    0.1632 C   0  0  0  0  0  0  0  0  0  0  0  0
    0.1552   -3.4011    0.2644 C   0  0  0  0  0  0  0  0  0  0  0  0
   -0.3929   -4.0254    1.3874 C   0  0  0  0  0  0  0  0  0  0  0  0
   -0.9567   -3.3181    2.4257 C   0  0  0  0  0  0  0  0  0  0  0  0
   -1.4972   -3.9297    3.5533 C   0  0  0  0  0  0  0  0  0  0  0  0
   -1.4672   -5.3001    3.6358 C   0  0  0  0  0  0  0  0  0  0  0  0
   -0.9031   -6.0202    2.5998 C   0  0  0  0  0  0  0  0  0  0  0  0
   -0.3695   -5.3995    1.4848 C   0  0  0  0  0  0  0  0  0  0  0  0
    0.2014   -6.1255    0.4610 C   0  0  0  0  0  0  0  0  0  0  0  0
    0.7418   -5.4967   -0.6466 C   0  0  0  0  0  0  0  0  0  0  0  0
    1.3083   -6.2081   -1.6846 C   0  0  0  0  0  0  0  0  0  0  0  0
    1.8397   -5.5939   -2.7969 C   0  0  0  0  0  0  0  0  0  0  0  0
    1.8266   -4.2264   -2.9192 C   0  0  0  0  0  0  0  0  0  0  0  0
    1.2562   -3.4947   -1.8747 C   0  0  0  0  0  0  0  0  0  0  0  0
    0.7291   -4.1131   -0.7680 C   0  0  0  0  0  0  0  0  0  0  0  0
    1.3139   -1.1737    0.1965 C   0  0  0  0  0  0  0  0  0  0  0  0
    2.6537   -1.5887    0.3187 C   0  0  0  0  0  0  0  0  0  0  0  0
    3.4347   -0.4851    0.3246 C   0  0  0  0  0  0  0  0  0  0  0  0
    2.5954    0.5883    0.2085 C   0  0  0  0  0  0  0  0  0  0  0  0
    2.9638    2.0081    0.1678 C   0  0  0  0  0  0  0  0  0  0  0  0
    4.2209    2.4098    0.2421 C   0  0  0  0  0  0  0  0  0  0  0  0
    4.6226    3.8343    0.2037 C   0  0  0  0  0  0  0  0  0  0  0  0
    4.4789    4.4245   -1.1796 C   0  0  0  0  0  0  0  0  0  0  0  0
    6.0760    3.9311    0.6054 C   0  0  0  0  0  0  0  0  0  0  0  0
    3.8348    4.6685    1.1896 C   0  0  0  0  0  0  0  0  0  0  0  0
    1.2950    0.1528    0.1306 N   0  0  0  0  0  0  0  0  0  0  0  0
    0.0036    0.9367   -0.0089 B   0  0  0  0  0  4  0  0  0  0  0  0
   -0.1095    1.7359    1.2243 F   0  0  0  0  0  0  0  0  0  0  0  0
    0.0389    1.8225   -1.1702 F   0  0  0  0  0  0  0  0  0  0  0  0
   -2.4803   -1.9122    0.0160 C   0  0  0  0  0  0  0  0  0  0  0  0
   -3.2731   -0.8680   -0.1021 C   0  0  0  0  0  0  0  0  0  0  0  0
   -6.9269    4.0272   -0.5457 H   0  0  0  0  0  0  0  0  0  0  0  0
   -6.7938    2.1961   -0.3853 H   0  0  0  0  0  0  0  0  0  0  0  0
   -6.4938    3.2416    1.0427 H   0  0  0  0  0  0  0  0  0  0  0  0
   -3.9999    4.2110   -2.2026 H   0  0  0  0  0  0  0  0  0  0  0  0
   -5.7571    4.4495   -2.0220 H   0  0  0  0  0  0  0  0  0  0  0  0
   -5.0655    2.8397   -2.5779 H   0  0  0  0  0  0  0  0  0  0  0  0
   -5.0260    5.0846    0.6742 H   0  0  0  0  0  0  0  0  0  0  0  0
   -3.7420    3.9272    1.2429 H   0  0  0  0  0  0  0  0  0  0  0  0
   -3.5333    4.8731   -0.2841 H   0  0  0  0  0  0  0  0  0  0  0  0
   -4.9640    1.0535   -0.3345 H   0  0  0  0  0  0  0  0  0  0  0  0
   -2.3433    2.5405   -0.2632 H   0  0  0  0  0  0  0  0  0  0  0  0
   -0.9701   -2.2360    2.3737 H   0  0  0  0  0  0  0  0  0  0  0  0
   -1.9360   -3.3241    4.3553 H   0  0  0  0  0  0  0  0  0  0  0  0
   -1.8800   -5.7908    4.4989 H   0  0  0  0  0  0  0  0  0  0  0  0
   -0.8774   -7.0991    2.6609 H   0  0  0  0  0  0  0  0  0  0  0  0
    0.2376   -7.1885    0.5027 H   0  0  0  0  0  0  0  0  0  0  0  0
    1.3180   -7.2845   -1.5877 H   0  0  0  0  0  0  0  0  0  0  0  0
    2.2892   -6.1541   -3.6207 H   0  0  0  0  0  0  0  0  0  0  0  0
    2.2397   -3.7139   -3.7888 H   0  0  0  0  0  0  0  0  0  0  0  0
    1.2191   -2.4268   -1.9508 H   0  0  0  0  0  0  0  0  0  0  0  0
    2.9881   -2.6182    0.3942 H   0  0  0  0  0  0  0  0  0  0  0  0
    4.5343   -0.4022    0.4043 H   0  0  0  0  0  0  0  0  0  0  0  0
    2.2208    2.7866    0.0748 H   0  0  0  0  0  0  0  0  0  0  0  0
    4.9864    1.6576    0.3340 H   0  0  0  0  0  0  0  0  0  0  0  0
    4.8954    5.4538   -1.1370 H   0  0  0  0  0  0  0  0  0  0  0  0
    5.0737    3.8535   -1.8969 H   0  0  0  0  0  0  0  0  0  0  0  0
    3.4120    4.5137   -1.4107 H   0  0  0  0  0  0  0  0  0  0  0  0
    6.6992    4.3466   -0.2110 H   0  0  0  0  0  0  0  0  0  0  0  0
    6.2326    4.5688    1.5050 H   0  0  0  0  0  0  0  0  0  0  0  0
    6.5198    2.9337    0.8428 H   0  0  0  0  0  0  0  0  0  0  0  0
    3.6816    4.1113    2.1217 H   0  0  0  0  0  0  0  0  0  0  0  0
    4.4235    5.5940    1.3604 H   0  0  0  0  0  0  0  0  0  0  0  0
    2.8674    4.9157    0.7145 H   0  0  0  0  0  0  0  0  0  0  0  0
   -2.7172   -2.9686    0.0690 H   0  0  0  0  0  0  0  0  0  0  0  0
   -4.3830   -0.9352   -0.1687 H   0  0  0  0  0  0  0  0  0  0  0  0
  1  2  1  0
  2  3  1  0
  2  4  1  0
  2  5  1  0
  5  6  2  0
  6  7  1  0
  7  8  2  0
  8  9  1  0
  9 10  2  0
 10 11  1  0
 11 12  1  0
 12 13  2  0
 13 14  1  0
 14 15  2  0
 15 16  1  0
 16 17  2  0
 17 18  1  0
 18 19  2  0
 19 20  1  0
 20 21  2  0
 21 22  1  0
 22 23  2  0
 23 24  1  0
 10 25  1  0
 25 26  2  0
 26 27  1  0
 27 28  2  0
 28 29  1  0
 29 30  2  0
 30 31  1  0
 31 32  1  0
 31 33  1  0
 31 34  1  0
 28 35  1  0
 35 36  1  0
 36 37  1  0
 36 38  1  0
  9 39  1  0
 39 40  2  0
 40  7  1  0
 36  8  1  0
 24 11  2  0
 35 25  1  0
 17 12  1  0
 24 19  1  0
  1 41  1  0
  1 42  1  0
  1 43  1  0
  3 44  1  0
  3 45  1  0
  3 46  1  0
  4 47  1  0
  4 48  1  0
  4 49  1  0
  5 50  1  0
  6 51  1  0
 13 52  1  0
 14 53  1  0
 15 54  1  0
 16 55  1  0
 18 56  1  0
 20 57  1  0
 21 58  1  0
 22 59  1  0
 23 60  1  0
 26 61  1  0
 27 62  1  0
 29 63  1  0
 30 64  1  0
 32 65  1  0
 32 66  1  0
 32 67  1  0
 33 68  1  0
 33 69  1  0
 33 70  1  0
 34 71  1  0
 34 72  1  0
 34 73  1  0
 39 74  1  0
 40 75  1  0
M  CHG  2   8   1  36  -1
M  END
