
     RDKit          3D

 29 30  0  0  0  0  0  0  0  0999 V2000
    3.1896   -1.6578   -0.6782 C   0  0  0  0  0  0  0  0  0  0  0  0
    2.3524   -0.4847   -0.2454 C   0  0  0  0  0  0  0  0  0  0  0  0
    1.0657   -0.4859   -0.1513 N   0  0  0  0  0  0  0  0  0  0  0  0
    0.5536    0.7521    0.2786 C   0  0  0  0  0  0  0  0  0  0  0  0
   -0.7122    1.0398    0.4636 C   0  0  0  0  0  0  0  0  0  0  0  0
   -1.7881    0.0832    0.2404 C   0  0  0  0  0  0  0  0  0  0  0  0
   -1.6635   -1.2602    0.5307 C   0  0  0  0  0  0  0  0  0  0  0  0
   -2.6855   -2.1637    0.3184 C   0  0  0  0  0  0  0  0  0  0  0  0
   -3.8964   -1.7168   -0.2096 C   0  0  0  0  0  0  0  0  0  0  0  0
   -4.0504   -0.3872   -0.5085 C   0  0  0  0  0  0  0  0  0  0  0  0
   -3.0195    0.4850   -0.2871 C   0  0  0  0  0  0  0  0  0  0  0  0
   -3.1862    1.8544   -0.5965 N   0  0  0  0  0  0  0  0  0  0  0  0
    1.7305    1.6169    0.4659 C   0  0  0  0  0  0  0  0  0  0  0  0
    1.6912    2.8066    0.8455 O   0  0  0  0  0  0  0  0  0  0  0  0
    2.8399    0.7953    0.1240 N   0  0  0  0  0  0  0  0  0  0  0  0
    4.2265    1.2048    0.1509 C   0  0  0  0  0  0  0  0  0  0  0  0
    3.9028   -1.9497    0.1244 H   0  0  0  0  0  0  0  0  0  0  0  0
    3.7070   -1.4169   -1.6309 H   0  0  0  0  0  0  0  0  0  0  0  0
    2.5249   -2.5189   -0.8920 H   0  0  0  0  0  0  0  0  0  0  0  0
   -0.9597    2.0334    0.7988 H   0  0  0  0  0  0  0  0  0  0  0  0
   -0.7383   -1.6500    0.9420 H   0  0  0  0  0  0  0  0  0  0  0  0
   -2.5765   -3.2097    0.5490 H   0  0  0  0  0  0  0  0  0  0  0  0
   -4.7272   -2.4122   -0.3883 H   0  0  0  0  0  0  0  0  0  0  0  0
   -4.9976   -0.0254   -0.9233 H   0  0  0  0  0  0  0  0  0  0  0  0
   -2.3874    2.5203   -0.7375 H   0  0  0  0  0  0  0  0  0  0  0  0
   -4.1430    2.2773   -0.7022 H   0  0  0  0  0  0  0  0  0  0  0  0
    4.3388    2.3039    0.1623 H   0  0  0  0  0  0  0  0  0  0  0  0
    4.7083    0.7470    1.0421 H   0  0  0  0  0  0  0  0  0  0  0  0
    4.7004    0.8191   -0.7607 H   0  0  0  0  0  0  0  0  0  0  0  0
  1  2  1  0
  2  3  2  0
  3  4  1  0
  4  5  2  0
  5  6  1  0
  6  7  2  0
  7  8  1  0
  8  9  2  0
  9 10  1  0
 10 11  2  0
 11 12  1  0
  4 13  1  0
 13 14  2  0
 13 15  1  0
 15 16  1  0
 15  2  1  0
 11  6  1  0
  1 17  1  0
  1 18  1  0
  1 19  1  0
  5 20  1  0
  7 21  1  0
  8 22  1  0
  9 23  1  0
 10 24  1  0
 12 25  1  0
 12 26  1  0
 16 27  1  0
 16 28  1  0
 16 29  1  0
M  END
