
     RDKit          3D

 87 97  0  0  0  0  0  0  0  0999 V2000
    2.7285   -2.7951   -0.8124 C   0  0  0  0  0  0  0  0  0  0  0  0
    1.8945   -1.8397   -0.0408 C   0  0  0  0  0  0  0  0  0  0  0  0
    0.5742   -2.2362    0.2155 C   0  0  0  0  0  0  0  0  0  0  0  0
   -0.2573   -1.4020    0.9260 C   0  0  0  0  0  0  0  0  0  0  0  0
   -1.6089   -1.7624    1.2074 N   0  0  0  0  0  0  0  0  0  0  0  0
   -1.9599   -2.8106    1.9702 C   0  0  0  0  0  0  0  0  0  0  0  0
   -1.2095   -3.7805    2.6546 C   0  0  0  0  0  0  0  0  0  0  0  0
   -1.9086   -4.7317    3.3544 C   0  0  0  0  0  0  0  0  0  0  0  0
   -3.3016   -4.7415    3.3889 C   0  0  0  0  0  0  0  0  0  0  0  0
   -4.0162   -3.7931    2.7190 C   0  0  0  0  0  0  0  0  0  0  0  0
   -3.3333   -2.8136    1.9993 C   0  0  0  0  0  0  0  0  0  0  0  0
   -3.7854   -1.7541    1.2441 C   0  0  0  0  0  0  0  0  0  0  0  0
   -5.0486   -1.2512    0.9068 C   0  0  0  0  0  0  0  0  0  0  0  0
   -5.1755   -0.1427    0.1101 C   0  0  0  0  0  0  0  0  0  0  0  0
   -4.0568    0.5007   -0.3768 C   0  0  0  0  0  0  0  0  0  0  0  0
   -2.8201    0.0401   -0.0691 C   0  0  0  0  0  0  0  0  0  0  0  0
   -2.6810   -1.0972    0.7485 C   0  0  0  0  0  0  0  0  0  0  0  0
   -4.2913    1.7123   -1.2529 C   0  0  0  0  0  0  0  0  0  0  0  0
   -5.2437    1.1454   -2.2849 C   0  0  0  0  0  0  0  0  0  0  0  0
   -5.0393    1.2410   -3.6343 C   0  0  0  0  0  0  0  0  0  0  0  0
   -5.9762    0.6829   -4.5137 C   0  0  0  0  0  0  0  0  0  0  0  0
   -7.1012    0.0389   -4.0270 C   0  0  0  0  0  0  0  0  0  0  0  0
   -7.2818   -0.0422   -2.6430 C   0  0  0  0  0  0  0  0  0  0  0  0
   -6.3625    0.5053   -1.7925 C   0  0  0  0  0  0  0  0  0  0  0  0
   -6.5009    0.4554   -0.2872 C   0  0  0  0  0  0  0  0  0  0  0  0
   -6.3313    1.8909    0.0839 C   0  0  0  0  0  0  0  0  0  0  0  0
   -7.2318    2.5533    0.8678 C   0  0  0  0  0  0  0  0  0  0  0  0
   -6.9673    3.9004    1.1499 C   0  0  0  0  0  0  0  0  0  0  0  0
   -5.8538    4.5602    0.6719 C   0  0  0  0  0  0  0  0  0  0  0  0
   -4.9498    3.8519   -0.1296 C   0  0  0  0  0  0  0  0  0  0  0  0
   -5.2083    2.5315   -0.4064 C   0  0  0  0  0  0  0  0  0  0  0  0
    0.2123   -0.1899    1.3776 C   0  0  0  0  0  0  0  0  0  0  0  0
   -0.6430    0.7700    2.1599 C   0  0  0  0  0  0  0  0  0  0  0  0
    1.5133    0.1839    1.1164 C   0  0  0  0  0  0  0  0  0  0  0  0
    2.3829   -0.6418    0.3968 C   0  0  0  0  0  0  0  0  0  0  0  0
    3.7505   -0.2333    0.1255 C   0  0  0  0  0  0  0  0  0  0  0  0
    4.6186   -0.9940   -0.5551 N   0  0  0  0  0  0  0  0  0  0  0  0
    5.8808   -0.6597   -0.8306 C   0  0  0  0  0  0  0  0  0  0  0  0
    6.7561   -1.5434   -1.5771 C   0  0  0  0  0  0  0  0  0  0  0  0
    6.3516   -2.7612   -2.0404 C   0  0  0  0  0  0  0  0  0  0  0  0
    7.2495   -3.5340   -2.7420 C   0  0  0  0  0  0  0  0  0  0  0  0
    8.5538   -3.0929   -2.9832 C   0  0  0  0  0  0  0  0  0  0  0  0
    8.9488   -1.8765   -2.5174 C   0  0  0  0  0  0  0  0  0  0  0  0
    8.0587   -1.1029   -1.8182 C   0  0  0  0  0  0  0  0  0  0  0  0
    6.3073    0.5466   -0.3815 N   0  0  0  0  0  0  0  0  0  0  0  0
    5.4795    1.3559    0.3093 C   0  0  0  0  0  0  0  0  0  0  0  0
    6.0143    2.6312    0.7506 C   0  0  0  0  0  0  0  0  0  0  0  0
    5.2509    3.5281    1.4664 C   0  0  0  0  0  0  0  0  0  0  0  0
    5.7416    4.7403    1.8898 C   0  0  0  0  0  0  0  0  0  0  0  0
    7.0334    5.0907    1.6013 C   0  0  0  0  0  0  0  0  0  0  0  0
    7.8232    4.2282    0.8933 C   0  0  0  0  0  0  0  0  0  0  0  0
    7.3057    3.0206    0.4818 C   0  0  0  0  0  0  0  0  0  0  0  0
    4.2168    0.9713    0.5599 N   0  0  0  0  0  0  0  0  0  0  0  0
    3.1079   -2.3396   -1.7643 H   0  0  0  0  0  0  0  0  0  0  0  0
    3.6187   -3.1245   -0.2439 H   0  0  0  0  0  0  0  0  0  0  0  0
    2.1402   -3.6883   -1.1416 H   0  0  0  0  0  0  0  0  0  0  0  0
    0.2392   -3.2092   -0.1615 H   0  0  0  0  0  0  0  0  0  0  0  0
   -0.1284   -3.7412    2.6048 H   0  0  0  0  0  0  0  0  0  0  0  0
   -1.3498   -5.4884    3.8887 H   0  0  0  0  0  0  0  0  0  0  0  0
   -3.8265   -5.4952    3.9428 H   0  0  0  0  0  0  0  0  0  0  0  0
   -5.0937   -3.7622    2.7167 H   0  0  0  0  0  0  0  0  0  0  0  0
   -5.9173   -1.7611    1.2921 H   0  0  0  0  0  0  0  0  0  0  0  0
   -1.9340    0.5318   -0.4422 H   0  0  0  0  0  0  0  0  0  0  0  0
   -3.4254    2.1815   -1.6343 H   0  0  0  0  0  0  0  0  0  0  0  0
   -4.1563    1.7474   -3.9892 H   0  0  0  0  0  0  0  0  0  0  0  0
   -5.8097    0.7611   -5.5727 H   0  0  0  0  0  0  0  0  0  0  0  0
   -7.8309   -0.3941   -4.6783 H   0  0  0  0  0  0  0  0  0  0  0  0
   -8.1571   -0.5436   -2.2775 H   0  0  0  0  0  0  0  0  0  0  0  0
   -7.3630   -0.0401    0.0765 H   0  0  0  0  0  0  0  0  0  0  0  0
   -8.0996    2.0645    1.2494 H   0  0  0  0  0  0  0  0  0  0  0  0
   -7.6853    4.4147    1.7707 H   0  0  0  0  0  0  0  0  0  0  0  0
   -5.7237    5.5819    0.9296 H   0  0  0  0  0  0  0  0  0  0  0  0
   -4.1002    4.3860   -0.4846 H   0  0  0  0  0  0  0  0  0  0  0  0
   -0.0491    1.1114    3.0433 H   0  0  0  0  0  0  0  0  0  0  0  0
   -1.5342    0.2757    2.5753 H   0  0  0  0  0  0  0  0  0  0  0  0
   -0.8619    1.6867    1.5805 H   0  0  0  0  0  0  0  0  0  0  0  0
    1.9138    1.1270    1.4557 H   0  0  0  0  0  0  0  0  0  0  0  0
    5.3633   -3.1412   -1.8806 H   0  0  0  0  0  0  0  0  0  0  0  0
    6.9406   -4.4998   -3.1132 H   0  0  0  0  0  0  0  0  0  0  0  0
    9.2387   -3.7099   -3.5319 H   0  0  0  0  0  0  0  0  0  0  0  0
    9.9677   -1.5520   -2.7168 H   0  0  0  0  0  0  0  0  0  0  0  0
    8.3845   -0.1415   -1.4531 H   0  0  0  0  0  0  0  0  0  0  0  0
    4.2137    3.3019    1.7245 H   0  0  0  0  0  0  0  0  0  0  0  0
    5.1329    5.4525    2.4586 H   0  0  0  0  0  0  0  0  0  0  0  0
    7.4538    6.0545    1.9271 H   0  0  0  0  0  0  0  0  0  0  0  0
    8.8463    4.5335    0.6789 H   0  0  0  0  0  0  0  0  0  0  0  0
    7.9826    2.3664   -0.0837 H   0  0  0  0  0  0  0  0  0  0  0  0
  1  2  1  0
  2  3  2  0
  3  4  1  0
  4  5  1  0
  5  6  1  0
  6  7  2  0
  7  8  1  0
  8  9  2  0
  9 10  1  0
 10 11  2  0
 11 12  1  0
 12 13  2  0
 13 14  1  0
 14 15  2  0
 15 16  1  0
 16 17  2  0
 15 18  1  0
 18 19  1  0
 19 20  2  0
 20 21  1  0
 21 22  2  0
 22 23  1  0
 23 24  2  0
 24 25  1  0
 25 26  1  0
 26 27  2  0
 27 28  1  0
 28 29  2  0
 29 30  1  0
 30 31  2  0
  4 32  2  0
 32 33  1  0
 32 34  1  0
 34 35  2  0
 35 36  1  0
 36 37  2  0
 37 38  1  0
 38 39  1  0
 39 40  2  0
 40 41  1  0
 41 42  2  0
 42 43  1  0
 43 44  2  0
 38 45  2  0
 45 46  1  0
 46 47  1  0
 47 48  2  0
 48 49  1  0
 49 50  2  0
 50 51  1  0
 51 52  2  0
 46 53  2  0
 35  2  1  0
 53 36  1  0
 17  5  1  0
 31 18  1  0
 44 39  1  0
 52 47  1  0
 11  6  1  0
 17 12  1  0
 24 19  1  0
 31 26  1  0
 25 14  1  0
  1 54  1  0
  1 55  1  0
  1 56  1  0
  3 57  1  0
  7 58  1  0
  8 59  1  0
  9 60  1  0
 10 61  1  0
 13 62  1  0
 16 63  1  0
 18 64  1  0
 20 65  1  0
 21 66  1  0
 22 67  1  0
 23 68  1  0
 25 69  1  0
 27 70  1  0
 28 71  1  0
 29 72  1  0
 30 73  1  0
 33 74  1  0
 33 75  1  0
 33 76  1  0
 34 77  1  0
 40 78  1  0
 41 79  1  0
 42 80  1  0
 43 81  1  0
 44 82  1  0
 48 83  1  0
 49 84  1  0
 50 85  1  0
 51 86  1  0
 52 87  1  0
M  END
