
     RDKit          3D

 64 67  0  0  0  0  0  0  0  0999 V2000
   -2.6271   -9.1007   -0.0850 C   0  0  0  0  0  0  0  0  0  0  0  0
   -3.4868   -7.9888   -0.0699 O   0  0  0  0  0  0  0  0  0  0  0  0
   -3.0441   -6.6784   -0.0375 C   0  0  0  0  0  0  0  0  0  0  0  0
   -3.9344   -5.6439   -0.0247 C   0  0  0  0  0  0  0  0  0  0  0  0
   -3.5006   -4.3381    0.0076 C   0  0  0  0  0  0  0  0  0  0  0  0
   -2.1562   -4.0042    0.0285 C   0  0  0  0  0  0  0  0  0  0  0  0
   -1.7989   -2.5978    0.0620 C   0  0  0  0  0  0  0  0  0  0  0  0
   -0.5570   -2.1631    0.0842 C   0  0  0  0  0  0  0  0  0  0  0  0
   -0.1658   -0.7600    0.1180 C   0  0  0  0  0  0  0  0  0  0  0  0
   -1.0629    0.2712    0.1304 C   0  0  0  0  0  0  0  0  0  0  0  0
   -0.6983    1.5935    0.1622 C   0  0  0  0  0  0  0  0  0  0  0  0
   -1.6400    2.7120    0.1760 C   0  0  0  0  0  0  0  0  0  0  0  0
   -2.9270    2.5762    0.1597 C   0  0  0  0  0  0  0  0  0  0  0  0
   -3.8474    3.6895    0.1736 C   0  0  0  0  0  0  0  0  0  0  0  0
   -3.4167    4.9732    0.2054 C   0  0  0  0  0  0  0  0  0  0  0  0
   -4.3123    6.0477    0.2188 C   0  0  0  0  0  0  0  0  0  0  0  0
   -5.6451    5.7904    0.1992 C   0  0  0  0  0  0  0  0  0  0  0  0
   -6.6017    6.7881    0.2103 O   0  0  0  0  0  0  0  0  0  0  0  0
   -6.1657    8.1273    0.2434 C   0  0  0  0  0  0  0  0  0  0  0  0
   -6.0809    4.4900    0.1670 C   0  0  0  0  0  0  0  0  0  0  0  0
   -5.2008    3.4297    0.1538 C   0  0  0  0  0  0  0  0  0  0  0  0
    0.6378    1.8580    0.1817 N   0  0  0  0  0  0  0  0  0  0  0  0
    1.5462    0.8673    0.1702 C   0  0  0  0  0  0  0  0  0  0  0  0
    2.9878    1.1426    0.1910 C   0  0  0  0  0  0  0  0  0  0  0  0
    3.8758    0.1744    0.1798 C   0  0  0  0  0  0  0  0  0  0  0  0
    5.3119    0.3970    0.1994 C   0  0  0  0  0  0  0  0  0  0  0  0
    6.1673   -0.7028    0.1850 C   0  0  0  0  0  0  0  0  0  0  0  0
    7.5367   -0.5611    0.2021 C   0  0  0  0  0  0  0  0  0  0  0  0
    8.1202    0.6871    0.2345 C   0  0  0  0  0  0  0  0  0  0  0  0
    9.5011    0.8260    0.2517 O   0  0  0  0  0  0  0  0  0  0  0  0
   10.3192   -0.3229    0.2359 C   0  0  0  0  0  0  0  0  0  0  0  0
    7.2831    1.7779    0.2488 C   0  0  0  0  0  0  0  0  0  0  0  0
    5.9022    1.6263    0.2314 C   0  0  0  0  0  0  0  0  0  0  0  0
    1.1480   -0.4133    0.1390 N   0  0  0  0  0  0  0  0  0  0  0  0
   -1.2716   -5.0343    0.0157 C   0  0  0  0  0  0  0  0  0  0  0  0
   -1.7049   -6.3606   -0.0170 C   0  0  0  0  0  0  0  0  0  0  0  0
   -2.2543   -9.2906    0.9406 H   0  0  0  0  0  0  0  0  0  0  0  0
   -1.7128   -8.9087   -0.7143 H   0  0  0  0  0  0  0  0  0  0  0  0
   -3.1619  -10.0141   -0.4488 H   0  0  0  0  0  0  0  0  0  0  0  0
   -4.9900   -5.8393   -0.0397 H   0  0  0  0  0  0  0  0  0  0  0  0
   -4.2688   -3.5645    0.0161 H   0  0  0  0  0  0  0  0  0  0  0  0
   -2.6224   -1.8674    0.0688 H   0  0  0  0  0  0  0  0  0  0  0  0
    0.2135   -2.9494    0.0757 H   0  0  0  0  0  0  0  0  0  0  0  0
   -2.1063    0.0104    0.1140 H   0  0  0  0  0  0  0  0  0  0  0  0
   -1.2361    3.7339    0.2017 H   0  0  0  0  0  0  0  0  0  0  0  0
   -3.3156    1.5541    0.1341 H   0  0  0  0  0  0  0  0  0  0  0  0
   -2.3748    5.2841    0.2230 H   0  0  0  0  0  0  0  0  0  0  0  0
   -3.9752    7.0761    0.2442 H   0  0  0  0  0  0  0  0  0  0  0  0
   -5.5835    8.3609    1.1602 H   0  0  0  0  0  0  0  0  0  0  0  0
   -7.0214    8.8404    0.1339 H   0  0  0  0  0  0  0  0  0  0  0  0
   -5.4814    8.3065   -0.6217 H   0  0  0  0  0  0  0  0  0  0  0  0
   -7.1415    4.2366    0.1504 H   0  0  0  0  0  0  0  0  0  0  0  0
   -5.5843    2.3982    0.1278 H   0  0  0  0  0  0  0  0  0  0  0  0
    3.3182    2.1617    0.2159 H   0  0  0  0  0  0  0  0  0  0  0  0
    3.5111   -0.8629    0.1541 H   0  0  0  0  0  0  0  0  0  0  0  0
    5.7342   -1.6950    0.1596 H   0  0  0  0  0  0  0  0  0  0  0  0
    8.1315   -1.4852    0.1888 H   0  0  0  0  0  0  0  0  0  0  0  0
    9.9611   -1.0639    0.9865 H   0  0  0  0  0  0  0  0  0  0  0  0
   10.2719   -0.7652   -0.7885 H   0  0  0  0  0  0  0  0  0  0  0  0
   11.3638   -0.1149    0.4655 H   0  0  0  0  0  0  0  0  0  0  0  0
    7.7331    2.7768    0.2746 H   0  0  0  0  0  0  0  0  0  0  0  0
    5.2864    2.5257    0.2440 H   0  0  0  0  0  0  0  0  0  0  0  0
   -0.2229   -4.8758    0.0298 H   0  0  0  0  0  0  0  0  0  0  0  0
   -0.9630   -7.1438   -0.0259 H   0  0  0  0  0  0  0  0  0  0  0  0
  1  2  1  0
  2  3  1  0
  3  4  2  0
  4  5  1  0
  5  6  2  0
  6  7  1  0
  7  8  2  0
  8  9  1  0
  9 10  2  0
 10 11  1  0
 11 12  1  0
 12 13  2  0
 13 14  1  0
 14 15  2  0
 15 16  1  0
 16 17  2  0
 17 18  1  0
 18 19  1  0
 17 20  1  0
 20 21  2  0
 11 22  2  0
 22 23  1  0
 23 24  1  0
 24 25  2  0
 25 26  1  0
 26 27  2  0
 27 28  1  0
 28 29  2  0
 29 30  1  0
 30 31  1  0
 29 32  1  0
 32 33  2  0
 23 34  2  0
  6 35  1  0
 35 36  2  0
 36  3  1  0
 34  9  1  0
 21 14  1  0
 33 26  1  0
  1 37  1  0
  1 38  1  0
  1 39  1  0
  4 40  1  0
  5 41  1  0
  7 42  1  0
  8 43  1  0
 10 44  1  0
 12 45  1  0
 13 46  1  0
 15 47  1  0
 16 48  1  0
 19 49  1  0
 19 50  1  0
 19 51  1  0
 20 52  1  0
 21 53  1  0
 24 54  1  0
 25 55  1  0
 27 56  1  0
 28 57  1  0
 31 58  1  0
 31 59  1  0
 31 60  1  0
 32 61  1  0
 33 62  1  0
 35 63  1  0
 36 64  1  0
M  END
