
     RDKit          3D

 28 31  0  0  0  0  0  0  0  0999 V2000
    4.9461   -0.8825    0.0853 O   0  0  0  0  0  0  0  0  0  0  0  0
    3.7590   -1.2782    0.2248 C   0  0  0  0  0  0  0  0  0  0  0  0
    2.6696   -0.3291    0.0073 C   0  0  0  0  0  0  0  0  0  0  0  0
    2.9593    0.9896   -0.3487 C   0  0  0  0  0  0  0  0  0  0  0  0
    2.0086    1.9484   -0.5729 C   0  0  0  0  0  0  0  0  0  0  0  0
    0.6829    1.6135   -0.4453 C   0  0  0  0  0  0  0  0  0  0  0  0
   -0.3314    2.5242   -0.6550 C   0  0  0  0  0  0  0  0  0  0  0  0
   -1.6492    2.1415   -0.5150 C   0  0  0  0  0  0  0  0  0  0  0  0
   -1.9982    0.8553   -0.1658 C   0  0  0  0  0  0  0  0  0  0  0  0
   -3.3360    0.5500   -0.0456 C   0  0  0  0  0  0  0  0  0  0  0  0
   -3.7021   -0.7292    0.3022 C   0  0  0  0  0  0  0  0  0  0  0  0
   -2.7050   -1.6577    0.5171 C   0  0  0  0  0  0  0  0  0  0  0  0
   -1.3658   -1.3272    0.3902 C   0  0  0  0  0  0  0  0  0  0  0  0
   -0.3651   -2.2307    0.5984 C   0  0  0  0  0  0  0  0  0  0  0  0
    0.9713   -1.9220    0.4773 C   0  0  0  0  0  0  0  0  0  0  0  0
    1.3295   -0.6486    0.1313 C   0  0  0  0  0  0  0  0  0  0  0  0
    0.3569    0.3276   -0.0969 C   0  0  0  0  0  0  0  0  0  0  0  0
   -0.9816   -0.0518    0.0428 C   0  0  0  0  0  0  0  0  0  0  0  0
    3.6453   -2.3029    0.4981 H   0  0  0  0  0  0  0  0  0  0  0  0
    4.0287    1.2350   -0.4452 H   0  0  0  0  0  0  0  0  0  0  0  0
    2.2665    2.9584   -0.8466 H   0  0  0  0  0  0  0  0  0  0  0  0
   -0.0315    3.5243   -0.9273 H   0  0  0  0  0  0  0  0  0  0  0  0
   -2.4364    2.8731   -0.6842 H   0  0  0  0  0  0  0  0  0  0  0  0
   -4.0699    1.3124   -0.2246 H   0  0  0  0  0  0  0  0  0  0  0  0
   -4.7557   -0.9408    0.3893 H   0  0  0  0  0  0  0  0  0  0  0  0
   -2.9898   -2.6562    0.7886 H   0  0  0  0  0  0  0  0  0  0  0  0
   -0.6515   -3.2379    0.8722 H   0  0  0  0  0  0  0  0  0  0  0  0
    1.7454   -2.6583    0.6482 H   0  0  0  0  0  0  0  0  0  0  0  0
  1  2  2  0
  2  3  1  0
  3  4  2  0
  4  5  1  0
  5  6  2  0
  6  7  1  0
  7  8  2  0
  8  9  1  0
  9 10  2  0
 10 11  1  0
 11 12  2  0
 12 13  1  0
 13 14  2  0
 14 15  1  0
 15 16  2  0
 16 17  1  0
 17 18  2  0
 16  3  1  0
 17  6  1  0
 18  9  1  0
 18 13  1  0
  2 19  1  0
  4 20  1  0
  5 21  1  0
  7 22  1  0
  8 23  1  0
 10 24  1  0
 11 25  1  0
 12 26  1  0
 14 27  1  0
 15 28  1  0
M  END
