
     RDKit          3D

 67 68  0  0  0  0  0  0  0  0999 V2000
   -0.6803   -4.1616    0.3575 C   0  0  0  0  0  0  0  0  0  0  0  0
   -1.5953   -3.6949   -0.7690 C   0  0  0  0  0  0  0  0  0  0  0  0
   -2.8533   -4.5285   -0.8070 C   0  0  0  0  0  0  0  0  0  0  0  0
   -0.8589   -3.8853   -2.0637 C   0  0  0  0  0  0  0  0  0  0  0  0
   -1.9205   -2.3079   -0.4993 N   0  0  0  0  0  0  0  0  0  0  0  0
   -0.8673   -1.3555   -0.4202 C   0  0  0  0  0  0  0  0  0  0  0  0
    0.4188   -1.5848   -0.5665 O   0  0  0  0  0  0  0  0  0  0  0  0
    1.1145   -0.4738   -0.4302 C   0  0  0  0  0  0  0  0  0  0  0  0
    2.5591   -0.3402   -0.5262 C   0  0  0  0  0  0  0  0  0  0  0  0
    3.3099   -1.3923   -0.7720 C   0  0  0  0  0  0  0  0  0  0  0  0
    4.7501   -1.3763   -0.8883 C   0  0  0  0  0  0  0  0  0  0  0  0
    5.5126   -0.2345   -0.7513 C   0  0  0  0  0  0  0  0  0  0  0  0
    6.9062   -0.2783   -0.8742 C   0  0  0  0  0  0  0  0  0  0  0  0
    7.5696   -1.4533   -1.1348 C   0  0  0  0  0  0  0  0  0  0  0  0
    6.8170   -2.6008   -1.2736 C   0  0  0  0  0  0  0  0  0  0  0  0
    5.4539   -2.5399   -1.1503 C   0  0  0  0  0  0  0  0  0  0  0  0
    0.2345    0.5576   -0.1775 C   0  0  0  0  0  0  0  0  0  0  0  0
    0.5345    1.9617    0.0424 C   0  0  0  0  0  0  0  0  0  0  0  0
    0.5662    2.7265   -0.9615 O   0  0  0  0  0  0  0  0  0  0  0  0
    0.7886    2.5298    1.2651 O   0  0  0  0  0  0  0  0  0  0  0  0
    1.0789    3.8667    1.5144 C   0  0  0  0  0  0  0  0  0  0  0  0
    1.2839    4.0073    3.0291 C   0  0  0  0  0  0  0  0  0  0  0  0
    2.3389    4.3490    0.8078 C   0  0  0  0  0  0  0  0  0  0  0  0
   -0.0269    4.8155    1.1442 C   0  0  0  0  0  0  0  0  0  0  0  0
   -1.0225   -0.0123   -0.1730 C   0  0  0  0  0  0  0  0  0  0  0  0
   -2.2488    0.7350    0.0589 C   0  0  0  0  0  0  0  0  0  0  0  0
   -2.2360    1.9839    0.2756 O   0  0  0  0  0  0  0  0  0  0  0  0
   -3.5053    0.1476    0.0605 O   0  0  0  0  0  0  0  0  0  0  0  0
   -4.7056    0.8407    0.2807 C   0  0  0  0  0  0  0  0  0  0  0  0
   -4.7109    1.5030    1.6425 C   0  0  0  0  0  0  0  0  0  0  0  0
   -5.8192   -0.2050    0.2947 C   0  0  0  0  0  0  0  0  0  0  0  0
   -5.0392    1.8091   -0.8275 C   0  0  0  0  0  0  0  0  0  0  0  0
    0.3452   -3.8530    0.0929 H   0  0  0  0  0  0  0  0  0  0  0  0
   -1.0173   -3.7807    1.3371 H   0  0  0  0  0  0  0  0  0  0  0  0
   -0.6620   -5.2803    0.4180 H   0  0  0  0  0  0  0  0  0  0  0  0
   -3.0761   -4.8884   -1.8302 H   0  0  0  0  0  0  0  0  0  0  0  0
   -2.6716   -5.4286   -0.1769 H   0  0  0  0  0  0  0  0  0  0  0  0
   -3.6654   -3.9453   -0.3632 H   0  0  0  0  0  0  0  0  0  0  0  0
   -0.1531   -4.7363   -1.9296 H   0  0  0  0  0  0  0  0  0  0  0  0
   -0.2479   -3.0008   -2.2991 H   0  0  0  0  0  0  0  0  0  0  0  0
   -1.5272   -4.1839   -2.8983 H   0  0  0  0  0  0  0  0  0  0  0  0
   -2.9037   -2.0518   -0.3728 H   0  0  0  0  0  0  0  0  0  0  0  0
    3.0440    0.6114   -0.4001 H   0  0  0  0  0  0  0  0  0  0  0  0
    2.8098   -2.3627   -0.9003 H   0  0  0  0  0  0  0  0  0  0  0  0
    5.0503    0.7166   -0.5464 H   0  0  0  0  0  0  0  0  0  0  0  0
    7.5015    0.6106   -0.7677 H   0  0  0  0  0  0  0  0  0  0  0  0
    8.6457   -1.4668   -1.2262 H   0  0  0  0  0  0  0  0  0  0  0  0
    7.3206   -3.5541   -1.4823 H   0  0  0  0  0  0  0  0  0  0  0  0
    4.8959   -3.4479   -1.2633 H   0  0  0  0  0  0  0  0  0  0  0  0
    2.0498    3.2964    3.3734 H   0  0  0  0  0  0  0  0  0  0  0  0
    0.3041    3.7656    3.4880 H   0  0  0  0  0  0  0  0  0  0  0  0
    1.5252    5.0634    3.2306 H   0  0  0  0  0  0  0  0  0  0  0  0
    2.4293    3.9221   -0.2122 H   0  0  0  0  0  0  0  0  0  0  0  0
    2.2656    5.4418    0.6874 H   0  0  0  0  0  0  0  0  0  0  0  0
    3.2519    4.0415    1.3608 H   0  0  0  0  0  0  0  0  0  0  0  0
    0.0306    5.1387    0.0754 H   0  0  0  0  0  0  0  0  0  0  0  0
   -1.0250    4.4598    1.4363 H   0  0  0  0  0  0  0  0  0  0  0  0
    0.1565    5.7572    1.7345 H   0  0  0  0  0  0  0  0  0  0  0  0
   -3.8817    1.1118    2.2796 H   0  0  0  0  0  0  0  0  0  0  0  0
   -4.5556    2.5987    1.5602 H   0  0  0  0  0  0  0  0  0  0  0  0
   -5.6492    1.2897    2.1882 H   0  0  0  0  0  0  0  0  0  0  0  0
   -6.0073   -0.5700   -0.7155 H   0  0  0  0  0  0  0  0  0  0  0  0
   -5.5016   -1.0862    0.9184 H   0  0  0  0  0  0  0  0  0  0  0  0
   -6.7454    0.1884    0.7618 H   0  0  0  0  0  0  0  0  0  0  0  0
   -6.0863    1.6735   -1.2075 H   0  0  0  0  0  0  0  0  0  0  0  0
   -4.3684    1.7062   -1.6825 H   0  0  0  0  0  0  0  0  0  0  0  0
   -5.0286    2.8348   -0.3754 H   0  0  0  0  0  0  0  0  0  0  0  0
  1  2  1  0
  2  3  1  0
  2  4  1  0
  2  5  1  0
  5  6  1  0
  6  7  1  0
  7  8  1  0
  8  9  1  0
  9 10  2  3
 10 11  1  0
 11 12  2  0
 12 13  1  0
 13 14  2  0
 14 15  1  0
 15 16  2  0
  8 17  2  0
 17 18  1  0
 18 19  2  0
 18 20  1  0
 20 21  1  0
 21 22  1  0
 21 23  1  0
 21 24  1  0
 17 25  1  0
 25 26  1  0
 26 27  2  0
 26 28  1  0
 28 29  1  0
 29 30  1  0
 29 31  1  0
 29 32  1  0
 25  6  2  0
 16 11  1  0
  1 33  1  0
  1 34  1  0
  1 35  1  0
  3 36  1  0
  3 37  1  0
  3 38  1  0
  4 39  1  0
  4 40  1  0
  4 41  1  0
  5 42  1  0
  9 43  1  0
 10 44  1  0
 12 45  1  0
 13 46  1  0
 14 47  1  0
 15 48  1  0
 16 49  1  0
 22 50  1  0
 22 51  1  0
 22 52  1  0
 23 53  1  0
 23 54  1  0
 23 55  1  0
 24 56  1  0
 24 57  1  0
 24 58  1  0
 30 59  1  0
 30 60  1  0
 30 61  1  0
 31 62  1  0
 31 63  1  0
 31 64  1  0
 32 65  1  0
 32 66  1  0
 32 67  1  0
M  END
