
     RDKit          3D

 56 60  0  0  0  0  0  0  0  0999 V2000
    1.1432    3.1655   -0.3358 O   0  0  0  0  0  0  0  0  0  0  0  0
    1.3178    1.9478   -0.0606 C   0  0  0  0  0  0  0  0  0  0  0  0
    0.4053    0.9785   -0.3942 C   0  0  0  0  0  0  0  0  0  0  0  0
    0.6062   -0.3324   -0.0882 C   0  0  0  0  0  0  0  0  0  0  0  0
   -0.3606   -1.3501   -0.4545 C   0  0  0  0  0  0  0  0  0  0  0  0
    0.1379   -2.5668   -0.9116 N   0  0  0  0  0  0  0  0  0  0  0  0
   -0.9157   -3.2555   -1.3340 C   0  0  0  0  0  0  0  0  0  0  0  0
   -0.9534   -4.5315   -1.8849 C   0  0  0  0  0  0  0  0  0  0  0  0
   -2.1557   -5.0804   -2.2664 C   0  0  0  0  0  0  0  0  0  0  0  0
   -3.2807   -4.3304   -2.0824 C   0  0  0  0  0  0  0  0  0  0  0  0
   -3.1783   -3.0801   -1.5346 C   0  0  0  0  0  0  0  0  0  0  0  0
   -2.0187   -2.5260   -1.1559 N   0  0  0  0  0  0  0  0  0  0  0  0
   -1.6888   -1.3044   -0.5905 C   0  0  0  0  0  0  0  0  0  0  0  0
   -2.6672   -0.4253   -0.1548 N   0  0  0  0  0  0  0  0  0  0  0  0
   -2.6584    0.6933    0.7250 C   0  0  0  0  0  0  0  0  0  0  0  0
   -2.7841    2.0370    0.1272 C   0  0  0  0  0  0  0  0  0  0  0  0
   -3.9677    2.7723    0.6923 C   0  0  0  0  0  0  0  0  0  0  0  0
   -5.2724    2.0453    0.4427 C   0  0  0  0  0  0  0  0  0  0  0  0
   -5.1532    0.6929    1.1149 C   0  0  0  0  0  0  0  0  0  0  0  0
   -3.8052    0.4693    1.7117 C   0  0  0  0  0  0  0  0  0  0  0  0
    1.7313   -0.6925    0.5563 O   0  0  0  0  0  0  0  0  0  0  0  0
    2.6271    0.1931    0.8927 C   0  0  0  0  0  0  0  0  0  0  0  0
    2.4713    1.5217    0.6100 C   0  0  0  0  0  0  0  0  0  0  0  0
    3.3797    2.5090    0.9401 O   0  0  0  0  0  0  0  0  0  0  0  0
    4.5621    2.2054    1.5947 C   0  0  0  0  0  0  0  0  0  0  0  0
    5.3832    1.3077    0.7551 C   0  0  0  0  0  0  0  0  0  0  0  0
    5.0942    1.1972   -0.5952 C   0  0  0  0  0  0  0  0  0  0  0  0
    5.8719    0.3549   -1.3583 C   0  0  0  0  0  0  0  0  0  0  0  0
    6.9210   -0.3839   -0.8551 C   0  0  0  0  0  0  0  0  0  0  0  0
    7.1813   -0.2497    0.4951 C   0  0  0  0  0  0  0  0  0  0  0  0
    6.4138    0.5891    1.2772 C   0  0  0  0  0  0  0  0  0  0  0  0
   -0.4789    1.2803   -0.9691 H   0  0  0  0  0  0  0  0  0  0  0  0
   -0.0599   -5.1170   -2.0260 H   0  0  0  0  0  0  0  0  0  0  0  0
   -2.2029   -6.0819   -2.7010 H   0  0  0  0  0  0  0  0  0  0  0  0
   -4.2646   -4.7176   -2.3682 H   0  0  0  0  0  0  0  0  0  0  0  0
   -4.0962   -2.4870   -1.3926 H   0  0  0  0  0  0  0  0  0  0  0  0
   -3.6721   -0.5822   -0.5622 H   0  0  0  0  0  0  0  0  0  0  0  0
   -1.7342    0.6936    1.3760 H   0  0  0  0  0  0  0  0  0  0  0  0
   -2.9227    1.9937   -0.9755 H   0  0  0  0  0  0  0  0  0  0  0  0
   -1.8935    2.6972    0.3524 H   0  0  0  0  0  0  0  0  0  0  0  0
   -4.0471    3.8102    0.2880 H   0  0  0  0  0  0  0  0  0  0  0  0
   -3.8371    2.8583    1.7877 H   0  0  0  0  0  0  0  0  0  0  0  0
   -6.1167    2.6462    0.8355 H   0  0  0  0  0  0  0  0  0  0  0  0
   -5.3514    1.8917   -0.6422 H   0  0  0  0  0  0  0  0  0  0  0  0
   -5.4360   -0.1020    0.3998 H   0  0  0  0  0  0  0  0  0  0  0  0
   -5.8919    0.6755    1.9269 H   0  0  0  0  0  0  0  0  0  0  0  0
   -3.6908    1.0424    2.6369 H   0  0  0  0  0  0  0  0  0  0  0  0
   -3.7851   -0.6136    2.0403 H   0  0  0  0  0  0  0  0  0  0  0  0
    3.5283   -0.1166    1.4138 H   0  0  0  0  0  0  0  0  0  0  0  0
    5.1468    3.1193    1.8794 H   0  0  0  0  0  0  0  0  0  0  0  0
    4.3435    1.7109    2.5867 H   0  0  0  0  0  0  0  0  0  0  0  0
    4.2723    1.7598   -1.0533 H   0  0  0  0  0  0  0  0  0  0  0  0
    5.6357    0.2754   -2.4198 H   0  0  0  0  0  0  0  0  0  0  0  0
    7.4900   -1.0261   -1.5132 H   0  0  0  0  0  0  0  0  0  0  0  0
    7.9972   -0.8221    0.8947 H   0  0  0  0  0  0  0  0  0  0  0  0
    6.6802    0.6403    2.3266 H   0  0  0  0  0  0  0  0  0  0  0  0
  1  2  2  0
  2  3  1  0
  3  4  2  0
  4  5  1  0
  5  6  1  0
  6  7  2  0
  7  8  1  0
  8  9  2  0
  9 10  1  0
 10 11  2  0
 11 12  1  0
 12 13  1  0
 13 14  1  0
 14 15  1  0
 15 16  1  0
 16 17  1  0
 17 18  1  0
 18 19  1  0
 19 20  1  0
  4 21  1  0
 21 22  1  0
 22 23  2  0
 23 24  1  0
 24 25  1  0
 25 26  1  0
 26 27  2  0
 27 28  1  0
 28 29  2  0
 29 30  1  0
 30 31  2  0
 23  2  1  0
 31 26  1  0
 13  5  2  0
 20 15  1  0
 12  7  1  0
  3 32  1  0
  8 33  1  0
  9 34  1  0
 10 35  1  0
 11 36  1  0
 14 37  1  0
 15 38  1  0
 16 39  1  0
 16 40  1  0
 17 41  1  0
 17 42  1  0
 18 43  1  0
 18 44  1  0
 19 45  1  0
 19 46  1  0
 20 47  1  0
 20 48  1  0
 22 49  1  0
 25 50  1  0
 25 51  1  0
 27 52  1  0
 28 53  1  0
 29 54  1  0
 30 55  1  0
 31 56  1  0
M  END
