
     RDKit          3D

 17 18  0  0  0  0  0  0  0  0999 V2000
    2.8333    0.6308    0.2614 N   0  0  0  0  0  0  0  0  0  0  0  0
    1.4752    0.2297    0.1105 C   0  0  0  0  0  0  0  0  0  0  0  0
    1.1871   -1.0776   -0.2246 C   0  0  0  0  0  0  0  0  0  0  0  0
   -0.0885   -1.5440   -0.3885 C   0  0  0  0  0  0  0  0  0  0  0  0
   -1.1503   -0.6674   -0.2113 C   0  0  0  0  0  0  0  0  0  0  0  0
   -2.4796   -0.8441   -0.3055 N   0  0  0  0  0  0  0  0  0  0  0  0
   -3.0168    0.3284   -0.0350 N   0  0  0  0  0  0  0  0  0  0  0  0
   -2.1063    1.2554    0.2293 C   0  0  0  0  0  0  0  0  0  0  0  0
   -0.8812    0.6446    0.1242 C   0  0  0  0  0  0  0  0  0  0  0  0
    0.4223    1.1065    0.2881 C   0  0  0  0  0  0  0  0  0  0  0  0
    3.3687    0.4100    1.1422 H   0  0  0  0  0  0  0  0  0  0  0  0
    3.3687    1.1516   -0.4658 H   0  0  0  0  0  0  0  0  0  0  0  0
    2.0054   -1.7637   -0.3637 H   0  0  0  0  0  0  0  0  0  0  0  0
   -0.3413   -2.5570   -0.6492 H   0  0  0  0  0  0  0  0  0  0  0  0
   -2.9876   -1.7462   -0.5484 H   0  0  0  0  0  0  0  0  0  0  0  0
   -2.2131    2.3055    0.4856 H   0  0  0  0  0  0  0  0  0  0  0  0
    0.6039    2.1375    0.5506 H   0  0  0  0  0  0  0  0  0  0  0  0
  1  2  1  0
  2  3  2  0
  3  4  1  0
  4  5  2  0
  5  6  1  0
  6  7  1  0
  7  8  2  0
  8  9  1  0
  9 10  2  0
 10  2  1  0
  9  5  1  0
  1 11  1  0
  1 12  1  0
  3 13  1  0
  4 14  1  0
  6 15  1  0
  8 16  1  0
 10 17  1  0
M  END
