
     RDKit          3D

 76 84  0  0  0  0  0  0  0  0999 V2000
   -4.1701   -3.9091    0.6154 C   0  0  0  0  0  0  0  0  0  0  0  0
   -2.8514   -3.6154    0.3872 C   0  0  0  0  0  0  0  0  0  0  0  0
   -2.4253   -2.3247    0.2060 C   0  0  0  0  0  0  0  0  0  0  0  0
   -3.3743   -1.3268    0.2616 C   0  0  0  0  0  0  0  0  0  0  0  0
   -4.7139   -1.5666    0.4883 C   0  0  0  0  0  0  0  0  0  0  0  0
   -5.1079   -2.8769    0.6663 C   0  0  0  0  0  0  0  0  0  0  0  0
   -5.8666   -0.6526    0.5842 C   0  0  0  0  0  0  0  0  0  0  0  0
   -5.8779    0.3974   -0.4883 C   0  0  0  0  0  0  0  0  0  0  0  0
   -4.8284    1.4104   -0.3449 C   0  0  0  0  0  0  0  0  0  0  0  0
   -5.2956    2.7186   -0.4747 C   0  0  0  0  0  0  0  0  0  0  0  0
   -4.4534    3.8056   -0.3735 C   0  0  0  0  0  0  0  0  0  0  0  0
   -3.1203    3.5485   -0.1371 C   0  0  0  0  0  0  0  0  0  0  0  0
   -2.5997    2.2778    0.0003 C   0  0  0  0  0  0  0  0  0  0  0  0
   -3.4790    1.2115   -0.1078 C   0  0  0  0  0  0  0  0  0  0  0  0
   -2.7931   -0.0245    0.0563 N   0  0  0  0  0  0  0  0  0  0  0  0
   -1.3666   -0.0059    0.0254 C   0  0  0  0  0  0  0  0  0  0  0  0
   -0.6744    0.0524    1.2103 C   0  0  0  0  0  0  0  0  0  0  0  0
   -1.3247    0.0864    2.4432 C   0  0  0  0  0  0  0  0  0  0  0  0
   -0.6178    0.1445    3.6251 C   0  0  0  0  0  0  0  0  0  0  0  0
    0.7568    0.1703    3.6059 C   0  0  0  0  0  0  0  0  0  0  0  0
    1.4328    0.1382    2.4118 C   0  0  0  0  0  0  0  0  0  0  0  0
    0.6997    0.0800    1.2417 C   0  0  0  0  0  0  0  0  0  0  0  0
    1.3454    0.0460    0.0219 C   0  0  0  0  0  0  0  0  0  0  0  0
    2.7842    0.0635   -0.0171 N   0  0  0  0  0  0  0  0  0  0  0  0
    3.4445   -1.2075   -0.1196 C   0  0  0  0  0  0  0  0  0  0  0  0
    2.5811   -2.2454    0.1041 C   0  0  0  0  0  0  0  0  0  0  0  0
    3.0632   -3.5374    0.0400 C   0  0  0  0  0  0  0  0  0  0  0  0
    4.3822   -3.8218   -0.2410 C   0  0  0  0  0  0  0  0  0  0  0  0
    5.2552   -2.7767   -0.4671 C   0  0  0  0  0  0  0  0  0  0  0  0
    4.7719   -1.4879   -0.4026 C   0  0  0  0  0  0  0  0  0  0  0  0
    5.8147   -0.4612   -0.6663 C   0  0  0  0  0  0  0  0  0  0  0  0
    5.8413    0.5913    0.4210 C   0  0  0  0  0  0  0  0  0  0  0  0
    4.7620    1.5984    0.2454 C   0  0  0  0  0  0  0  0  0  0  0  0
    5.1743    2.8896    0.2846 C   0  0  0  0  0  0  0  0  0  0  0  0
    4.2681    3.9061    0.1375 C   0  0  0  0  0  0  0  0  0  0  0  0
    2.9288    3.6475   -0.0522 C   0  0  0  0  0  0  0  0  0  0  0  0
    2.5018    2.3521   -0.0935 C   0  0  0  0  0  0  0  0  0  0  0  0
    3.4243    1.3396    0.0558 C   0  0  0  0  0  0  0  0  0  0  0  0
    0.6690   -0.0125   -1.1751 C   0  0  0  0  0  0  0  0  0  0  0  0
    1.3855   -0.0448   -2.3853 C   0  0  0  0  0  0  0  0  0  0  0  0
    0.6736   -0.1031   -3.5543 C   0  0  0  0  0  0  0  0  0  0  0  0
   -0.7172   -0.1292   -3.5382 C   0  0  0  0  0  0  0  0  0  0  0  0
   -1.4116   -0.0981   -2.3718 C   0  0  0  0  0  0  0  0  0  0  0  0
   -0.6965   -0.0386   -1.1724 C   0  0  0  0  0  0  0  0  0  0  0  0
   -4.4531   -4.9380    0.7511 H   0  0  0  0  0  0  0  0  0  0  0  0
   -2.1414   -4.4163    0.3502 H   0  0  0  0  0  0  0  0  0  0  0  0
   -1.4080   -2.0425    0.0266 H   0  0  0  0  0  0  0  0  0  0  0  0
   -6.1489   -3.0970    0.8454 H   0  0  0  0  0  0  0  0  0  0  0  0
   -5.7567   -0.1075    1.5607 H   0  0  0  0  0  0  0  0  0  0  0  0
   -6.8334   -1.1892    0.6434 H   0  0  0  0  0  0  0  0  0  0  0  0
   -5.7422   -0.1234   -1.4603 H   0  0  0  0  0  0  0  0  0  0  0  0
   -6.8965    0.8327   -0.5134 H   0  0  0  0  0  0  0  0  0  0  0  0
   -6.3542    2.8343   -0.6591 H   0  0  0  0  0  0  0  0  0  0  0  0
   -4.8313    4.8339   -0.4773 H   0  0  0  0  0  0  0  0  0  0  0  0
   -2.4438    4.3943   -0.0547 H   0  0  0  0  0  0  0  0  0  0  0  0
   -1.5693    2.0717    0.1815 H   0  0  0  0  0  0  0  0  0  0  0  0
   -2.4162    0.0642    2.4125 H   0  0  0  0  0  0  0  0  0  0  0  0
   -1.1506    0.1701    4.5826 H   0  0  0  0  0  0  0  0  0  0  0  0
    1.3406    0.2168    4.5407 H   0  0  0  0  0  0  0  0  0  0  0  0
    2.5181    0.1567    2.3441 H   0  0  0  0  0  0  0  0  0  0  0  0
    1.5424   -2.0231    0.3242 H   0  0  0  0  0  0  0  0  0  0  0  0
    2.3726   -4.3652    0.2191 H   0  0  0  0  0  0  0  0  0  0  0  0
    4.7026   -4.8731   -0.2774 H   0  0  0  0  0  0  0  0  0  0  0  0
    6.2994   -2.9698   -0.6907 H   0  0  0  0  0  0  0  0  0  0  0  0
    5.5801    0.0346   -1.6381 H   0  0  0  0  0  0  0  0  0  0  0  0
    6.8225   -0.9547   -0.6957 H   0  0  0  0  0  0  0  0  0  0  0  0
    5.6274    0.0429    1.3830 H   0  0  0  0  0  0  0  0  0  0  0  0
    6.8172    1.0605    0.5559 H   0  0  0  0  0  0  0  0  0  0  0  0
    6.2074    3.1252    0.4303 H   0  0  0  0  0  0  0  0  0  0  0  0
    4.5628    4.9501    0.1634 H   0  0  0  0  0  0  0  0  0  0  0  0
    2.1966    4.4446   -0.1705 H   0  0  0  0  0  0  0  0  0  0  0  0
    1.4358    2.1003   -0.2415 H   0  0  0  0  0  0  0  0  0  0  0  0
    2.4676   -0.0218   -2.3283 H   0  0  0  0  0  0  0  0  0  0  0  0
    1.2119   -0.1287   -4.5000 H   0  0  0  0  0  0  0  0  0  0  0  0
   -1.2559   -0.1753   -4.4730 H   0  0  0  0  0  0  0  0  0  0  0  0
   -2.4982   -0.1164   -2.3037 H   0  0  0  0  0  0  0  0  0  0  0  0
  1  2  2  0
  2  3  1  0
  3  4  2  0
  4  5  1  0
  5  6  2  0
  5  7  1  0
  7  8  1  0
  8  9  1  0
  9 10  2  0
 10 11  1  0
 11 12  2  0
 12 13  1  0
 13 14  2  0
 14 15  1  0
 15 16  1  0
 16 17  1  0
 17 18  2  0
 18 19  1  0
 19 20  2  0
 20 21  1  0
 21 22  2  0
 22 23  1  0
 23 24  1  0
 24 25  1  0
 25 26  2  0
 26 27  1  0
 27 28  2  0
 28 29  1  0
 29 30  2  0
 30 31  1  0
 31 32  1  0
 32 33  1  0
 33 34  2  0
 34 35  1  0
 35 36  2  0
 36 37  1  0
 37 38  2  0
 23 39  2  0
 39 40  1  0
 40 41  2  0
 41 42  1  0
 42 43  2  0
 43 44  1  0
  6  1  1  0
 14  9  1  0
 44 16  2  0
 15  4  1  0
 22 17  1  0
 38 24  1  0
 44 39  1  0
 30 25  1  0
 38 33  1  0
  1 45  1  0
  2 46  1  0
  3 47  1  0
  6 48  1  0
  7 49  1  0
  7 50  1  0
  8 51  1  0
  8 52  1  0
 10 53  1  0
 11 54  1  0
 12 55  1  0
 13 56  1  0
 18 57  1  0
 19 58  1  0
 20 59  1  0
 21 60  1  0
 26 61  1  0
 27 62  1  0
 28 63  1  0
 29 64  1  0
 31 65  1  0
 31 66  1  0
 32 67  1  0
 32 68  1  0
 34 69  1  0
 35 70  1  0
 36 71  1  0
 37 72  1  0
 40 73  1  0
 41 74  1  0
 42 75  1  0
 43 76  1  0
M  END
