
     RDKit          3D

 30 31  0  0  0  0  0  0  0  0999 V2000
    4.8403   -0.1992    0.3264 C   0  0  0  0  0  0  0  0  0  0  0  0
    3.3468   -0.1647    0.2259 C   0  0  0  0  0  0  0  0  0  0  0  0
    2.5199   -0.8204    1.1119 C   0  0  0  0  0  0  0  0  0  0  0  0
    1.1303   -0.7781    1.0309 C   0  0  0  0  0  0  0  0  0  0  0  0
    0.5416   -0.0368   -0.0027 C   0  0  0  0  0  0  0  0  0  0  0  0
   -0.9066    0.0316   -0.0598 C   0  0  0  0  0  0  0  0  0  0  0  0
   -1.5813    1.2043    0.2323 C   0  0  0  0  0  0  0  0  0  0  0  0
   -0.7859    2.3604    0.5468 C   0  0  0  0  0  0  0  0  0  0  0  0
   -0.1421    3.2952    0.8202 N   0  0  0  0  0  0  0  0  0  0  0  0
   -2.9602    1.2686    0.2128 C   0  0  0  0  0  0  0  0  0  0  0  0
   -3.5993    2.4919    0.5208 N   0  0  0  0  0  0  0  0  0  0  0  0
   -3.7010    0.1810   -0.0970 N   0  0  0  0  0  0  0  0  0  0  0  0
   -3.0623   -0.9926   -0.3919 C   0  0  0  0  0  0  0  0  0  0  0  0
   -3.9002   -2.0833   -0.6822 N   0  0  0  0  0  0  0  0  0  0  0  0
   -1.6901   -1.0702   -0.3750 C   0  0  0  0  0  0  0  0  0  0  0  0
   -1.0691   -2.2990   -0.6865 C   0  0  0  0  0  0  0  0  0  0  0  0
   -0.5665   -3.2790   -0.9368 N   0  0  0  0  0  0  0  0  0  0  0  0
    1.3800    0.6102   -0.8861 C   0  0  0  0  0  0  0  0  0  0  0  0
    2.7614    0.5613   -0.7903 C   0  0  0  0  0  0  0  0  0  0  0  0
    5.3307   -0.4676   -0.6302 H   0  0  0  0  0  0  0  0  0  0  0  0
    5.2467    0.7539    0.6610 H   0  0  0  0  0  0  0  0  0  0  0  0
    5.1281   -0.9987    1.0616 H   0  0  0  0  0  0  0  0  0  0  0  0
    2.9617   -1.4006    1.9139 H   0  0  0  0  0  0  0  0  0  0  0  0
    0.4801   -1.2924    1.7189 H   0  0  0  0  0  0  0  0  0  0  0  0
   -3.7298    2.7462    1.5234 H   0  0  0  0  0  0  0  0  0  0  0  0
   -3.9199    3.1020   -0.2734 H   0  0  0  0  0  0  0  0  0  0  0  0
   -4.9180   -2.0885   -0.4705 H   0  0  0  0  0  0  0  0  0  0  0  0
   -3.5073   -2.9349   -1.1268 H   0  0  0  0  0  0  0  0  0  0  0  0
    0.9451    1.2070   -1.7091 H   0  0  0  0  0  0  0  0  0  0  0  0
    3.4267    1.0923   -1.4956 H   0  0  0  0  0  0  0  0  0  0  0  0
  1  2  1  0
  2  3  2  0
  3  4  1  0
  4  5  2  0
  5  6  1  0
  6  7  2  0
  7  8  1  0
  8  9  3  0
  7 10  1  0
 10 11  1  0
 10 12  2  0
 12 13  1  0
 13 14  1  0
 13 15  2  0
 15 16  1  0
 16 17  3  0
  5 18  1  0
 18 19  2  0
 19  2  1  0
 15  6  1  0
  1 20  1  0
  1 21  1  0
  1 22  1  0
  3 23  1  0
  4 24  1  0
 11 25  1  0
 11 26  1  0
 14 27  1  0
 14 28  1  0
 18 29  1  0
 19 30  1  0
M  END
