
     RDKit          3D

 92101  0  0  0  0  0  0  0  0999 V2000
   -4.0120    4.9929    0.9915 C   0  0  0  0  0  0  0  0  0  0  0  0
   -5.0827    4.2378    0.1987 C   0  0  0  0  0  0  0  0  0  0  0  0
   -6.3403    4.2544    1.0472 C   0  0  0  0  0  0  0  0  0  0  0  0
   -5.3063    4.9186   -1.1099 C   0  0  0  0  0  0  0  0  0  0  0  0
   -4.6170    2.8504    0.1049 C   0  0  0  0  0  0  0  0  0  0  0  0
   -4.3657    2.1855    1.2856 C   0  0  0  0  0  0  0  0  0  0  0  0
   -3.9282    0.8914    1.3345 C   0  0  0  0  0  0  0  0  0  0  0  0
   -3.7119    0.1676    0.1576 C   0  0  0  0  0  0  0  0  0  0  0  0
   -3.2520   -1.1738    0.1979 N   0  0  0  0  0  0  0  0  0  0  0  0
   -1.9672   -1.5535    0.1094 C   0  0  0  0  0  0  0  0  0  0  0  0
   -0.7265   -0.8035   -0.1471 C   0  0  0  0  0  0  0  0  0  0  0  0
    0.4459   -1.5140   -0.4463 C   0  0  0  0  0  0  0  0  0  0  0  0
    1.6321   -0.9077   -0.7149 C   0  0  0  0  0  0  0  0  0  0  0  0
    1.7202    0.4946   -0.6996 C   0  0  0  0  0  0  0  0  0  0  0  0
    3.0213    1.0684   -1.0206 C   0  0  0  0  0  0  0  0  0  0  0  0
    3.1083    2.2911   -1.6385 C   0  0  0  0  0  0  0  0  0  0  0  0
    4.3309    2.8621   -1.9896 C   0  0  0  0  0  0  0  0  0  0  0  0
    5.5091    2.1805   -1.7103 C   0  0  0  0  0  0  0  0  0  0  0  0
    5.4450    0.9622   -1.0957 C   0  0  0  0  0  0  0  0  0  0  0  0
    6.6678    0.2147   -0.8369 C   0  0  0  0  0  0  0  0  0  0  0  0
    7.8045    0.5231   -0.1677 C   0  0  0  0  0  0  0  0  0  0  0  0
    8.1195    1.7858    0.4794 C   0  0  0  0  0  0  0  0  0  0  0  0
    7.8215    1.9991    1.8081 C   0  0  0  0  0  0  0  0  0  0  0  0
    8.1276    3.1685    2.4632 C   0  0  0  0  0  0  0  0  0  0  0  0
    8.7564    4.1648    1.7610 C   0  0  0  0  0  0  0  0  0  0  0  0
    9.0685    3.9809    0.4215 C   0  0  0  0  0  0  0  0  0  0  0  0
    8.7506    2.8032   -0.2059 C   0  0  0  0  0  0  0  0  0  0  0  0
    8.5843   -0.5914   -0.2306 N   0  0  0  0  0  0  0  0  0  0  0  0
    7.9757   -1.5572   -0.9043 C   0  0  0  0  0  0  0  0  0  0  0  0
    8.2962   -2.8618   -1.2648 C   0  0  0  0  0  0  0  0  0  0  0  0
    7.4377   -3.6539   -1.9918 C   0  0  0  0  0  0  0  0  0  0  0  0
    6.2143   -3.1474   -2.3829 C   0  0  0  0  0  0  0  0  0  0  0  0
    5.9369   -1.8463   -2.0039 C   0  0  0  0  0  0  0  0  0  0  0  0
    6.7903   -1.0866   -1.2910 N   0  0  0  0  0  0  0  0  0  0  0  0
    4.1988    0.4251   -0.7585 C   0  0  0  0  0  0  0  0  0  0  0  0
    0.5871    1.1636   -0.4085 C   0  0  0  0  0  0  0  0  0  0  0  0
   -0.6492    0.5587   -0.1279 C   0  0  0  0  0  0  0  0  0  0  0  0
   -1.9087   -2.9078    0.2161 N   0  0  0  0  0  0  0  0  0  0  0  0
   -3.1583   -3.3942    0.3714 C   0  0  0  0  0  0  0  0  0  0  0  0
   -3.6133   -4.6850    0.5085 C   0  0  0  0  0  0  0  0  0  0  0  0
   -2.6720   -5.7144    0.5143 C   0  0  0  0  0  0  0  0  0  0  0  0
   -3.1014   -7.0038    0.6508 C   0  0  0  0  0  0  0  0  0  0  0  0
   -4.4420   -7.2642    0.7793 C   0  0  0  0  0  0  0  0  0  0  0  0
   -5.3889   -6.2629    0.7765 C   0  0  0  0  0  0  0  0  0  0  0  0
   -4.9603   -4.9602    0.6392 C   0  0  0  0  0  0  0  0  0  0  0  0
   -5.8133   -3.8759    0.6239 C   0  0  0  0  0  0  0  0  0  0  0  0
   -7.1641   -4.1275    0.7332 C   0  0  0  0  0  0  0  0  0  0  0  0
   -8.0471   -3.0572    0.7016 C   0  0  0  0  0  0  0  0  0  0  0  0
   -7.5861   -1.7759    0.5652 C   0  0  0  0  0  0  0  0  0  0  0  0
   -6.2354   -1.5141    0.4549 C   0  0  0  0  0  0  0  0  0  0  0  0
   -5.3489   -2.5556    0.4839 C   0  0  0  0  0  0  0  0  0  0  0  0
   -3.9894   -2.2927    0.3554 C   0  0  0  0  0  0  0  0  0  0  0  0
   -3.9677    0.8424   -1.0328 C   0  0  0  0  0  0  0  0  0  0  0  0
   -4.4062    2.1426   -1.0534 C   0  0  0  0  0  0  0  0  0  0  0  0
   -3.9825    6.0599    0.6916 H   0  0  0  0  0  0  0  0  0  0  0  0
   -3.0110    4.5175    0.8158 H   0  0  0  0  0  0  0  0  0  0  0  0
   -4.2222    4.9776    2.0679 H   0  0  0  0  0  0  0  0  0  0  0  0
   -7.0198    5.0220    0.6021 H   0  0  0  0  0  0  0  0  0  0  0  0
   -6.1365    4.5561    2.0926 H   0  0  0  0  0  0  0  0  0  0  0  0
   -6.7832    3.2380    1.0792 H   0  0  0  0  0  0  0  0  0  0  0  0
   -5.5888    5.9833   -0.9273 H   0  0  0  0  0  0  0  0  0  0  0  0
   -6.1558    4.4647   -1.6621 H   0  0  0  0  0  0  0  0  0  0  0  0
   -4.3721    4.9354   -1.6944 H   0  0  0  0  0  0  0  0  0  0  0  0
   -4.5231    2.7178    2.2241 H   0  0  0  0  0  0  0  0  0  0  0  0
   -3.7253    0.3556    2.2622 H   0  0  0  0  0  0  0  0  0  0  0  0
    0.4109   -2.6178   -0.4654 H   0  0  0  0  0  0  0  0  0  0  0  0
    2.5292   -1.4759   -0.9494 H   0  0  0  0  0  0  0  0  0  0  0  0
    2.2181    2.8832   -1.8890 H   0  0  0  0  0  0  0  0  0  0  0  0
    4.3412    3.8259   -2.4754 H   0  0  0  0  0  0  0  0  0  0  0  0
    6.4388    2.6556   -1.9977 H   0  0  0  0  0  0  0  0  0  0  0  0
    7.3193    1.1934    2.3457 H   0  0  0  0  0  0  0  0  0  0  0  0
    7.8726    3.2797    3.5002 H   0  0  0  0  0  0  0  0  0  0  0  0
    9.0197    5.0954    2.2306 H   0  0  0  0  0  0  0  0  0  0  0  0
    9.5709    4.8044   -0.0964 H   0  0  0  0  0  0  0  0  0  0  0  0
    8.9986    2.6829   -1.2519 H   0  0  0  0  0  0  0  0  0  0  0  0
    9.2638   -3.2273   -0.9413 H   0  0  0  0  0  0  0  0  0  0  0  0
    7.6896   -4.6699   -2.2647 H   0  0  0  0  0  0  0  0  0  0  0  0
    5.5135   -3.7597   -2.9599 H   0  0  0  0  0  0  0  0  0  0  0  0
    4.9508   -1.4902   -2.3408 H   0  0  0  0  0  0  0  0  0  0  0  0
    4.1857   -0.5304   -0.2773 H   0  0  0  0  0  0  0  0  0  0  0  0
    0.6081    2.2570   -0.3843 H   0  0  0  0  0  0  0  0  0  0  0  0
   -1.4871    1.1989    0.1032 H   0  0  0  0  0  0  0  0  0  0  0  0
   -1.6240   -5.4761    0.4131 H   0  0  0  0  0  0  0  0  0  0  0  0
   -2.3961   -7.8107    0.6577 H   0  0  0  0  0  0  0  0  0  0  0  0
   -4.7149   -8.3263    0.8866 H   0  0  0  0  0  0  0  0  0  0  0  0
   -6.4044   -6.5120    0.8789 H   0  0  0  0  0  0  0  0  0  0  0  0
   -7.5867   -5.1429    0.8429 H   0  0  0  0  0  0  0  0  0  0  0  0
   -9.1189   -3.2762    0.7887 H   0  0  0  0  0  0  0  0  0  0  0  0
   -8.2963   -0.9337    0.5421 H   0  0  0  0  0  0  0  0  0  0  0  0
   -5.9499   -0.5152    0.3408 H   0  0  0  0  0  0  0  0  0  0  0  0
   -3.8167    0.3421   -1.9779 H   0  0  0  0  0  0  0  0  0  0  0  0
   -4.6033    2.6766   -1.9858 H   0  0  0  0  0  0  0  0  0  0  0  0
  1  2  1  0
  2  3  1  0
  2  4  1  0
  2  5  1  0
  5  6  2  0
  6  7  1  0
  7  8  2  0
  8  9  1  0
  9 10  1  0
 10 11  1  0
 11 12  2  0
 12 13  1  0
 13 14  2  0
 14 15  1  0
 15 16  2  0
 16 17  1  0
 17 18  2  0
 18 19  1  0
 19 20  1  0
 20 21  2  0
 21 22  1  0
 22 23  2  0
 23 24  1  0
 24 25  2  0
 25 26  1  0
 26 27  2  0
 21 28  1  0
 28 29  2  0
 29 30  1  0
 30 31  2  0
 31 32  1  0
 32 33  2  0
 33 34  1  0
 19 35  2  0
 14 36  1  0
 36 37  2  0
 10 38  2  0
 38 39  1  0
 39 40  2  0
 40 41  1  0
 41 42  2  0
 42 43  1  0
 43 44  2  0
 44 45  1  0
 45 46  2  0
 46 47  1  0
 47 48  2  0
 48 49  1  0
 49 50  2  0
 50 51  1  0
 51 52  2  0
  8 53  1  0
 53 54  2  0
 54  5  1  0
 52  9  1  0
 37 11  1  0
 52 39  1  0
 35 15  1  0
 45 40  1  0
 51 46  1  0
 34 20  1  0
 27 22  1  0
 34 29  1  0
  1 55  1  0
  1 56  1  0
  1 57  1  0
  3 58  1  0
  3 59  1  0
  3 60  1  0
  4 61  1  0
  4 62  1  0
  4 63  1  0
  6 64  1  0
  7 65  1  0
 12 66  1  0
 13 67  1  0
 16 68  1  0
 17 69  1  0
 18 70  1  0
 23 71  1  0
 24 72  1  0
 25 73  1  0
 26 74  1  0
 27 75  1  0
 30 76  1  0
 31 77  1  0
 32 78  1  0
 33 79  1  0
 35 80  1  0
 36 81  1  0
 37 82  1  0
 41 83  1  0
 42 84  1  0
 43 85  1  0
 44 86  1  0
 47 87  1  0
 48 88  1  0
 49 89  1  0
 50 90  1  0
 53 91  1  0
 54 92  1  0
M  END
