
     RDKit          3D

 64 72  0  0  0  0  0  0  0  0999 V2000
  -11.2408   -0.1290    1.0563 N   0  0  0  0  0  0  0  0  0  0  0  0
   -9.8271   -0.1532    0.8997 C   0  0  0  0  0  0  0  0  0  0  0  0
   -9.0320    0.8090    1.5264 C   0  0  0  0  0  0  0  0  0  0  0  0
   -7.6597    0.8193    1.4022 C   0  0  0  0  0  0  0  0  0  0  0  0
   -7.0547   -0.1506    0.6357 C   0  0  0  0  0  0  0  0  0  0  0  0
   -5.6478   -0.1486    0.5086 N   0  0  0  0  0  0  0  0  0  0  0  0
   -4.9647    0.9992    0.0326 C   0  0  0  0  0  0  0  0  0  0  0  0
   -5.5679    2.0597   -0.3001 O   0  0  0  0  0  0  0  0  0  0  0  0
   -3.5034    0.9692   -0.0827 C   0  0  0  0  0  0  0  0  0  0  0  0
   -2.8964    2.0969   -0.5418 C   0  0  0  0  0  0  0  0  0  0  0  0
   -1.5187    2.1516   -0.6776 C   0  0  0  0  0  0  0  0  0  0  0  0
   -0.7712    1.0572   -0.3444 C   0  0  0  0  0  0  0  0  0  0  0  0
    0.6291    1.0930   -0.4666 C   0  0  0  0  0  0  0  0  0  0  0  0
    1.2383    2.2425   -0.9263 C   0  0  0  0  0  0  0  0  0  0  0  0
    2.6318    2.2606   -1.0335 C   0  0  0  0  0  0  0  0  0  0  0  0
    3.3818    1.1760   -0.6957 C   0  0  0  0  0  0  0  0  0  0  0  0
    2.7747    0.0337   -0.2393 C   0  0  0  0  0  0  0  0  0  0  0  0
    3.5256   -1.0761    0.1081 C   0  0  0  0  0  0  0  0  0  0  0  0
    2.8919   -2.1893    0.5566 C   0  0  0  0  0  0  0  0  0  0  0  0
    1.5141   -2.2781    0.6882 C   0  0  0  0  0  0  0  0  0  0  0  0
    0.7541   -1.1849    0.3479 C   0  0  0  0  0  0  0  0  0  0  0  0
   -0.6285   -1.2407    0.4761 C   0  0  0  0  0  0  0  0  0  0  0  0
   -1.2885   -2.3536    0.9359 C   0  0  0  0  0  0  0  0  0  0  0  0
   -2.6687   -2.3583    1.0545 C   0  0  0  0  0  0  0  0  0  0  0  0
   -3.4314   -1.2644    0.7218 C   0  0  0  0  0  0  0  0  0  0  0  0
   -2.7517   -0.1393    0.2549 C   0  0  0  0  0  0  0  0  0  0  0  0
   -1.3668   -0.1062    0.1265 C   0  0  0  0  0  0  0  0  0  0  0  0
   -4.8825   -1.2906    0.8565 C   0  0  0  0  0  0  0  0  0  0  0  0
   -5.4034   -2.3578    1.2885 O   0  0  0  0  0  0  0  0  0  0  0  0
    1.3812   -0.0232   -0.1178 C   0  0  0  0  0  0  0  0  0  0  0  0
    4.9822   -1.0082   -0.0200 C   0  0  0  0  0  0  0  0  0  0  0  0
    5.7001   -2.0054    0.2893 O   0  0  0  0  0  0  0  0  0  0  0  0
    5.6432    0.1609   -0.4895 N   0  0  0  0  0  0  0  0  0  0  0  0
    7.0505    0.2306   -0.6141 C   0  0  0  0  0  0  0  0  0  0  0  0
    7.8811    0.3734    0.4778 C   0  0  0  0  0  0  0  0  0  0  0  0
    9.2451    0.4292    0.3293 C   0  0  0  0  0  0  0  0  0  0  0  0
    9.8088    0.3424   -0.9267 C   0  0  0  0  0  0  0  0  0  0  0  0
   11.2100    0.3886   -1.1425 N   0  0  0  0  0  0  0  0  0  0  0  0
    9.0014    0.2010   -2.0247 C   0  0  0  0  0  0  0  0  0  0  0  0
    7.6400    0.1468   -1.8578 C   0  0  0  0  0  0  0  0  0  0  0  0
    4.8555    1.2748   -0.8362 C   0  0  0  0  0  0  0  0  0  0  0  0
    5.3777    2.3417   -1.2594 O   0  0  0  0  0  0  0  0  0  0  0  0
   -7.7940   -1.1224   -0.0036 C   0  0  0  0  0  0  0  0  0  0  0  0
   -9.1629   -1.0960    0.1472 C   0  0  0  0  0  0  0  0  0  0  0  0
  -11.5933    0.2592    1.9639 H   0  0  0  0  0  0  0  0  0  0  0  0
  -11.9308   -0.4538    0.3656 H   0  0  0  0  0  0  0  0  0  0  0  0
   -9.5452    1.5616    2.1266 H   0  0  0  0  0  0  0  0  0  0  0  0
   -7.0795    1.5991    1.9178 H   0  0  0  0  0  0  0  0  0  0  0  0
   -3.4618    2.9831   -0.8154 H   0  0  0  0  0  0  0  0  0  0  0  0
   -1.0580    3.0522   -1.0434 H   0  0  0  0  0  0  0  0  0  0  0  0
    0.6919    3.1333   -1.2080 H   0  0  0  0  0  0  0  0  0  0  0  0
    3.0854    3.1679   -1.3944 H   0  0  0  0  0  0  0  0  0  0  0  0
    3.4779   -3.0451    0.8230 H   0  0  0  0  0  0  0  0  0  0  0  0
    1.0784   -3.1867    1.0477 H   0  0  0  0  0  0  0  0  0  0  0  0
   -0.7338   -3.2303    1.2063 H   0  0  0  0  0  0  0  0  0  0  0  0
   -3.1224   -3.2747    1.4259 H   0  0  0  0  0  0  0  0  0  0  0  0
    7.4071    0.4400    1.4541 H   0  0  0  0  0  0  0  0  0  0  0  0
    9.8831    0.5410    1.1914 H   0  0  0  0  0  0  0  0  0  0  0  0
   11.7072    1.1987   -1.5320 H   0  0  0  0  0  0  0  0  0  0  0  0
   11.7832   -0.4507   -0.8932 H   0  0  0  0  0  0  0  0  0  0  0  0
    9.4170    0.1302   -3.0378 H   0  0  0  0  0  0  0  0  0  0  0  0
    7.0166    0.0336   -2.7563 H   0  0  0  0  0  0  0  0  0  0  0  0
   -7.3062   -1.8987   -0.6184 H   0  0  0  0  0  0  0  0  0  0  0  0
   -9.7722   -1.8456   -0.3436 H   0  0  0  0  0  0  0  0  0  0  0  0
  1  2  1  0
  2  3  2  0
  3  4  1  0
  4  5  2  0
  5  6  1  0
  6  7  1  0
  7  8  2  0
  7  9  1  0
  9 10  2  0
 10 11  1  0
 11 12  2  0
 12 13  1  0
 13 14  2  0
 14 15  1  0
 15 16  2  0
 16 17  1  0
 17 18  1  0
 18 19  2  0
 19 20  1  0
 20 21  2  0
 21 22  1  0
 22 23  1  0
 23 24  2  0
 24 25  1  0
 25 26  2  0
 26 27  1  0
 25 28  1  0
 28 29  2  0
 21 30  1  0
 18 31  1  0
 31 32  2  0
 31 33  1  0
 33 34  1  0
 34 35  2  0
 35 36  1  0
 36 37  2  0
 37 38  1  0
 37 39  1  0
 39 40  2  0
 33 41  1  0
 41 42  2  0
  5 43  1  0
 43 44  2  0
 44  2  1  0
 28  6  1  0
 40 34  1  0
 26  9  1  0
 27 12  1  0
 30 13  1  0
 41 16  1  0
 30 17  2  0
 27 22  2  0
  1 45  1  0
  1 46  1  0
  3 47  1  0
  4 48  1  0
 10 49  1  0
 11 50  1  0
 14 51  1  0
 15 52  1  0
 19 53  1  0
 20 54  1  0
 23 55  1  0
 24 56  1  0
 35 57  1  0
 36 58  1  0
 38 59  1  0
 38 60  1  0
 39 61  1  0
 40 62  1  0
 43 63  1  0
 44 64  1  0
M  END
