
     RDKit          3D

 85 96  0  0  0  0  0  0  0  0999 V2000
   -6.2737   -4.8236    0.8317 C   0  0  0  0  0  0  0  0  0  0  0  0
   -5.0943   -4.0161    0.4249 C   0  0  0  0  0  0  0  0  0  0  0  0
   -4.9115   -3.7545   -0.9150 C   0  0  0  0  0  0  0  0  0  0  0  0
   -3.8116   -3.0033   -1.2803 C   0  0  0  0  0  0  0  0  0  0  0  0
   -3.6763   -2.7045   -2.7271 C   0  0  0  0  0  0  0  0  0  0  0  0
   -2.8917   -2.5044   -0.3898 C   0  0  0  0  0  0  0  0  0  0  0  0
   -1.6971   -1.7488   -0.7743 C   0  0  0  0  0  0  0  0  0  0  0  0
   -0.7499   -2.2033   -1.5801 C   0  0  0  0  0  0  0  0  0  0  0  0
   -0.7252   -3.5270   -2.2336 C   0  0  0  0  0  0  0  0  0  0  0  0
    0.3794   -3.5410   -2.9454 C   0  0  0  0  0  0  0  0  0  0  0  0
    1.0660   -2.2900   -2.7772 C   0  0  0  0  0  0  0  0  0  0  0  0
    0.4348   -1.4772   -1.9783 N   0  0  0  0  0  4  0  0  0  0  0  0
    0.7569   -0.1313   -1.4069 B   0  0  0  0  0  4  0  0  0  0  0  0
    1.7223   -0.3026   -0.1371 C   0  0  0  0  0  0  0  0  0  0  0  0
    1.1804   -0.3533    1.1185 C   0  0  0  0  0  0  0  0  0  0  0  0
    1.9596   -0.5082    2.2705 C   0  0  0  0  0  0  0  0  0  0  0  0
    3.3273   -0.6181    2.1903 C   0  0  0  0  0  0  0  0  0  0  0  0
    4.1118   -0.7725    3.3225 C   0  0  0  0  0  0  0  0  0  0  0  0
    5.4789   -0.8775    3.1746 C   0  0  0  0  0  0  0  0  0  0  0  0
    6.0669   -0.8312    1.9301 C   0  0  0  0  0  0  0  0  0  0  0  0
    7.4353   -0.9350    1.7721 C   0  0  0  0  0  0  0  0  0  0  0  0
    8.0154   -0.8864    0.5147 C   0  0  0  0  0  0  0  0  0  0  0  0
    7.1962   -0.7317   -0.5816 C   0  0  0  0  0  0  0  0  0  0  0  0
    5.8432   -0.6307   -0.4049 C   0  0  0  0  0  0  0  0  0  0  0  0
    5.0668   -0.4760   -1.5481 C   0  0  0  0  0  0  0  0  0  0  0  0
    3.6824   -0.3660   -1.4562 C   0  0  0  0  0  0  0  0  0  0  0  0
    3.0774   -0.4102   -0.2278 C   0  0  0  0  0  0  0  0  0  0  0  0
    3.8679   -0.5662    0.9242 C   0  0  0  0  0  0  0  0  0  0  0  0
    5.2439   -0.6765    0.8363 C   0  0  0  0  0  0  0  0  0  0  0  0
    1.2461    0.9482   -2.2511 O   0  0  0  0  0  0  0  0  0  0  0  0
    1.1367    2.2820   -1.8443 C   0  0  0  0  0  0  0  0  0  0  0  0
    1.9363    3.2937   -2.2688 C   0  0  0  0  0  0  0  0  0  0  0  0
    1.7594    4.5825   -1.8150 C   0  0  0  0  0  0  0  0  0  0  0  0
    2.6002    5.5630   -2.2781 O   0  0  0  0  0  0  0  0  0  0  0  0
    0.7362    4.8728   -0.8980 C   0  0  0  0  0  0  0  0  0  0  0  0
   -0.0967    3.8906   -0.4408 C   0  0  0  0  0  0  0  0  0  0  0  0
   -1.2031    4.1211    0.3732 C   0  0  0  0  0  0  0  0  0  0  0  0
   -1.4224    5.3969    0.8166 C   0  0  0  0  0  0  0  0  0  0  0  0
   -2.5500    5.6075    1.5912 C   0  0  0  0  0  0  0  0  0  0  0  0
   -3.4360    4.5746    1.9158 C   0  0  0  0  0  0  0  0  0  0  0  0
   -4.6347    4.8466    2.7498 C   0  0  0  0  0  0  0  0  0  0  0  0
   -3.2045    3.2945    1.4643 C   0  0  0  0  0  0  0  0  0  0  0  0
   -2.0829    3.0779    0.6929 C   0  0  0  0  0  0  0  0  0  0  0  0
   -1.8285    1.7985    0.2705 C   0  0  0  0  0  0  0  0  0  0  0  0
   -2.4123    0.5324    0.3345 C   0  0  0  0  0  0  0  0  0  0  0  0
   -1.5754   -0.3405   -0.3625 C   0  0  0  0  0  0  0  0  0  0  0  0
   -0.5696    0.3864   -0.7889 N   0  0  0  0  0  0  0  0  0  0  0  0
   -0.6832    1.6317   -0.4533 C   0  0  0  0  0  0  0  0  0  0  0  0
    0.1386    2.6106   -0.9340 C   0  0  0  0  0  0  0  0  0  0  0  0
   -3.0867   -2.7719    0.9368 C   0  0  0  0  0  0  0  0  0  0  0  0
   -2.1893   -2.3168    2.0263 C   0  0  0  0  0  0  0  0  0  0  0  0
   -4.1909   -3.5288    1.3375 C   0  0  0  0  0  0  0  0  0  0  0  0
   -5.9963   -5.8792    0.8605 H   0  0  0  0  0  0  0  0  0  0  0  0
   -7.0711   -4.6643    0.0949 H   0  0  0  0  0  0  0  0  0  0  0  0
   -6.6606   -4.4614    1.8167 H   0  0  0  0  0  0  0  0  0  0  0  0
   -5.6211   -4.1353   -1.6540 H   0  0  0  0  0  0  0  0  0  0  0  0
   -4.7098   -2.4190   -3.0719 H   0  0  0  0  0  0  0  0  0  0  0  0
   -2.9764   -1.8562   -2.9148 H   0  0  0  0  0  0  0  0  0  0  0  0
   -3.3928   -3.5695   -3.3415 H   0  0  0  0  0  0  0  0  0  0  0  0
   -1.4666   -4.3176   -2.1264 H   0  0  0  0  0  0  0  0  0  0  0  0
    0.6816   -4.3919   -3.5507 H   0  0  0  0  0  0  0  0  0  0  0  0
    2.0046   -2.0527   -3.2677 H   0  0  0  0  0  0  0  0  0  0  0  0
    0.1317   -0.2753    1.3058 H   0  0  0  0  0  0  0  0  0  0  0  0
    1.5103   -0.5459    3.2530 H   0  0  0  0  0  0  0  0  0  0  0  0
    3.6549   -0.8102    4.3105 H   0  0  0  0  0  0  0  0  0  0  0  0
    6.1214   -0.9987    4.0308 H   0  0  0  0  0  0  0  0  0  0  0  0
    8.0638   -1.0549    2.6267 H   0  0  0  0  0  0  0  0  0  0  0  0
    9.0770   -0.9704    0.4358 H   0  0  0  0  0  0  0  0  0  0  0  0
    7.6445   -0.6930   -1.5674 H   0  0  0  0  0  0  0  0  0  0  0  0
    5.4837   -0.4339   -2.5432 H   0  0  0  0  0  0  0  0  0  0  0  0
    3.1023   -0.2474   -2.3233 H   0  0  0  0  0  0  0  0  0  0  0  0
    2.7310    3.0904   -2.9781 H   0  0  0  0  0  0  0  0  0  0  0  0
    2.4429    6.1275   -3.0958 H   0  0  0  0  0  0  0  0  0  0  0  0
    0.6221    5.8714   -0.5659 H   0  0  0  0  0  0  0  0  0  0  0  0
   -0.7954    6.2437    0.6148 H   0  0  0  0  0  0  0  0  0  0  0  0
   -2.7523    6.6003    1.9565 H   0  0  0  0  0  0  0  0  0  0  0  0
   -5.3756    4.0498    2.6697 H   0  0  0  0  0  0  0  0  0  0  0  0
   -4.3104    5.0203    3.7980 H   0  0  0  0  0  0  0  0  0  0  0  0
   -5.1433    5.7946    2.4055 H   0  0  0  0  0  0  0  0  0  0  0  0
   -3.8677    2.4594    1.6927 H   0  0  0  0  0  0  0  0  0  0  0  0
   -3.3242    0.3045    0.8284 H   0  0  0  0  0  0  0  0  0  0  0  0
   -2.5665   -1.3864    2.4872 H   0  0  0  0  0  0  0  0  0  0  0  0
   -2.2162   -3.0764    2.8645 H   0  0  0  0  0  0  0  0  0  0  0  0
   -1.1311   -2.2571    1.6890 H   0  0  0  0  0  0  0  0  0  0  0  0
   -4.3633   -3.7516    2.3841 H   0  0  0  0  0  0  0  0  0  0  0  0
  1  2  1  0
  2  3  2  0
  3  4  1  0
  4  5  1  0
  4  6  2  0
  6  7  1  0
  7  8  2  0
  8  9  1  0
  9 10  2  0
 10 11  1  0
 11 12  2  0
 12 13  1  0
 13 14  1  0
 14 15  2  0
 15 16  1  0
 16 17  2  0
 17 18  1  0
 18 19  2  0
 19 20  1  0
 20 21  2  0
 21 22  1  0
 22 23  2  0
 23 24  1  0
 24 25  2  0
 25 26  1  0
 26 27  2  0
 27 28  1  0
 28 29  2  0
 13 30  1  0
 30 31  1  0
 31 32  2  0
 32 33  1  0
 33 34  1  0
 33 35  2  0
 35 36  1  0
 36 37  2  0
 37 38  1  0
 38 39  2  0
 39 40  1  0
 40 41  1  0
 40 42  2  0
 42 43  1  0
 43 44  2  0
 44 45  1  0
 45 46  2  0
 46 47  1  0
 47 48  1  0
 48 49  2  0
  6 50  1  0
 50 51  1  0
 50 52  2  0
 52  2  1  0
 46  7  1  0
 12  8  1  0
 47 13  1  0
 27 14  1  0
 49 31  1  0
 28 17  1  0
 49 36  1  0
 29 20  1  0
 43 37  1  0
 48 44  1  0
 29 24  1  0
  1 53  1  0
  1 54  1  0
  1 55  1  0
  3 56  1  0
  5 57  1  0
  5 58  1  0
  5 59  1  0
  9 60  1  0
 10 61  1  0
 11 62  1  0
 15 63  1  0
 16 64  1  0
 18 65  1  0
 19 66  1  0
 21 67  1  0
 22 68  1  0
 23 69  1  0
 25 70  1  0
 26 71  1  0
 32 72  1  0
 34 73  1  0
 35 74  1  0
 38 75  1  0
 39 76  1  0
 41 77  1  0
 41 78  1  0
 41 79  1  0
 42 80  1  0
 45 81  1  0
 51 82  1  0
 51 83  1  0
 51 84  1  0
 52 85  1  0
M  CHG  2  12   1  13  -1
M  END
