
     RDKit          3D

 39 41  0  0  0  0  0  0  0  0999 V2000
   10.5445   -0.9332   -0.2992 N   0  0  0  0  0  0  0  0  0  0  0  0
    9.4178   -0.8761   -0.1295 C   0  0  0  0  0  0  0  0  0  0  0  0
    7.9468   -0.8196    0.0728 C   0  0  0  0  0  0  0  0  0  0  0  0
    7.2367   -1.3490   -0.9656 C   0  0  0  0  0  0  0  0  0  0  0  0
    5.8369   -1.2747   -0.8671 C   0  0  0  0  0  0  0  0  0  0  0  0
    5.2010   -0.7024    0.2120 C   0  0  0  0  0  0  0  0  0  0  0  0
    3.7591   -0.5212    0.1911 C   0  0  0  0  0  0  0  0  0  0  0  0
    2.5669   -0.3595    0.1720 C   0  0  0  0  0  0  0  0  0  0  0  0
    1.1257   -0.1523    0.1702 C   0  0  0  0  0  0  0  0  0  0  0  0
    0.3295   -1.2785    0.3913 C   0  0  0  0  0  0  0  0  0  0  0  0
   -1.0308   -1.1616    0.3046 C   0  0  0  0  0  0  0  0  0  0  0  0
   -1.6134    0.0431    0.0020 C   0  0  0  0  0  0  0  0  0  0  0  0
   -3.0285    0.1242   -0.1812 C   0  0  0  0  0  0  0  0  0  0  0  0
   -4.2706    0.1883   -0.3293 C   0  0  0  0  0  0  0  0  0  0  0  0
   -5.6862    0.2644   -0.5127 C   0  0  0  0  0  0  0  0  0  0  0  0
   -6.3338   -0.5363   -1.3741 C   0  0  0  0  0  0  0  0  0  0  0  0
   -7.7286   -0.4530   -1.5152 C   0  0  0  0  0  0  0  0  0  0  0  0
   -8.4290    0.4616   -0.7607 C   0  0  0  0  0  0  0  0  0  0  0  0
   -7.7845    1.2740    0.1108 C   0  0  0  0  0  0  0  0  0  0  0  0
   -6.3963    1.2152    0.2742 C   0  0  0  0  0  0  0  0  0  0  0  0
   -5.7089    1.9710    1.1118 C   0  0  0  0  0  0  0  0  0  0  0  0
   -5.0285    2.7346    1.9652 N   0  0  0  0  0  0  0  0  0  0  0  0
   -0.7807    1.1569   -0.2123 C   0  0  0  0  0  0  0  0  0  0  0  0
    0.5700    1.0399   -0.1222 C   0  0  0  0  0  0  0  0  0  0  0  0
    1.4176    2.2019   -0.3292 C   0  0  0  0  0  0  0  0  0  0  0  0
    2.0897    3.1566   -0.5035 N   0  0  0  0  0  0  0  0  0  0  0  0
    5.9985   -0.1875    1.2402 C   0  0  0  0  0  0  0  0  0  0  0  0
    7.4000   -0.2480    1.1688 C   0  0  0  0  0  0  0  0  0  0  0  0
    7.6598   -1.8045   -1.8380 H   0  0  0  0  0  0  0  0  0  0  0  0
    5.2933   -1.6987   -1.7035 H   0  0  0  0  0  0  0  0  0  0  0  0
    0.7949   -2.2002    0.6179 H   0  0  0  0  0  0  0  0  0  0  0  0
   -1.7006   -2.0086    0.4623 H   0  0  0  0  0  0  0  0  0  0  0  0
   -5.8387   -1.2753   -1.9769 H   0  0  0  0  0  0  0  0  0  0  0  0
   -8.2927   -1.0772   -2.1980 H   0  0  0  0  0  0  0  0  0  0  0  0
   -9.5104    0.5747   -0.8171 H   0  0  0  0  0  0  0  0  0  0  0  0
   -8.3317    1.9865    0.7117 H   0  0  0  0  0  0  0  0  0  0  0  0
   -1.2539    2.0971   -0.4346 H   0  0  0  0  0  0  0  0  0  0  0  0
    5.5549    0.2782    2.1017 H   0  0  0  0  0  0  0  0  0  0  0  0
    8.0043    0.1493    1.9525 H   0  0  0  0  0  0  0  0  0  0  0  0
  1  2  3  0
  2  3  1  0
  3  4  2  0
  4  5  1  0
  5  6  2  0
  6  7  1  0
  7  8  3  0
  8  9  1  0
  9 10  2  0
 10 11  1  0
 11 12  2  0
 12 13  1  0
 13 14  3  0
 14 15  1  0
 15 16  2  0
 16 17  1  0
 17 18  2  0
 18 19  1  0
 19 20  2  0
 20 21  1  0
 21 22  3  0
 12 23  1  0
 23 24  2  0
 24 25  1  0
 25 26  3  0
  6 27  1  0
 27 28  2  0
 28  3  1  0
 24  9  1  0
 20 15  1  0
  4 29  1  0
  5 30  1  0
 10 31  1  0
 11 32  1  0
 16 33  1  0
 17 34  1  0
 18 35  1  0
 19 36  1  0
 23 37  1  0
 27 38  1  0
 28 39  1  0
M  END
