
     RDKit          3D

 37 40  0  0  0  0  0  0  0  0999 V2000
   -2.2952   -2.1593    1.7388 C   0  0  0  0  0  0  0  0  0  0  0  0
   -1.7875   -1.0589    0.8803 C   0  0  0  0  0  0  0  0  0  0  0  0
   -0.5423   -0.7277    0.8440 N   0  0  0  0  0  0  0  0  0  0  0  0
   -0.0323    0.2956    0.0601 N   0  0  0  0  0  0  0  0  0  0  0  0
    1.2979    0.8116    0.2714 C   0  0  0  0  0  0  0  0  0  0  0  0
    1.4770    2.1214    0.6679 C   0  0  0  0  0  0  0  0  0  0  0  0
    2.7449    2.6057    0.8933 C   0  0  0  0  0  0  0  0  0  0  0  0
    3.8602    1.7784    0.7236 C   0  0  0  0  0  0  0  0  0  0  0  0
    3.6668    0.4653    0.3245 C   0  0  0  0  0  0  0  0  0  0  0  0
    4.7764   -0.3177    0.1705 C   0  0  0  0  0  0  0  0  0  0  0  0
    4.6247   -1.6178   -0.2199 C   0  0  0  0  0  0  0  0  0  0  0  0
    3.3503   -2.0974   -0.4452 C   0  0  0  0  0  0  0  0  0  0  0  0
    2.2112   -1.3286   -0.2968 C   0  0  0  0  0  0  0  0  0  0  0  0
    2.3820   -0.0203    0.0971 C   0  0  0  0  0  0  0  0  0  0  0  0
   -0.8557    0.9368   -1.0241 B   0  0  0  0  0  4  0  0  0  0  0  0
   -0.6289    2.3740   -1.1101 F   0  0  0  0  0  0  0  0  0  0  0  0
   -0.4340    0.2893   -2.2900 F   0  0  0  0  0  0  0  0  0  0  0  0
   -2.3287    0.6089   -0.8612 N   0  0  0  0  0  4  0  0  0  0  0  0
   -3.2783    1.2457   -1.6014 C   0  0  0  0  0  0  0  0  0  0  0  0
   -4.6156    0.9462   -1.5159 C   0  0  0  0  0  0  0  0  0  0  0  0
   -5.0453   -0.0361   -0.6534 C   0  0  0  0  0  0  0  0  0  0  0  0
   -4.0736   -0.6832    0.0999 C   0  0  0  0  0  0  0  0  0  0  0  0
   -2.7191   -0.3490   -0.0143 C   0  0  0  0  0  0  0  0  0  0  0  0
   -2.7918   -1.8161    2.6649 H   0  0  0  0  0  0  0  0  0  0  0  0
   -2.9358   -2.8443    1.1290 H   0  0  0  0  0  0  0  0  0  0  0  0
   -1.3835   -2.7892    1.9763 H   0  0  0  0  0  0  0  0  0  0  0  0
    0.6376    2.7778    0.8026 H   0  0  0  0  0  0  0  0  0  0  0  0
    2.8949    3.6398    1.2059 H   0  0  0  0  0  0  0  0  0  0  0  0
    4.8677    2.1697    0.9073 H   0  0  0  0  0  0  0  0  0  0  0  0
    5.7739    0.1149    0.3650 H   0  0  0  0  0  0  0  0  0  0  0  0
    5.4863   -2.2425   -0.3444 H   0  0  0  0  0  0  0  0  0  0  0  0
    3.1783   -3.1366   -0.7622 H   0  0  0  0  0  0  0  0  0  0  0  0
    1.2231   -1.7329   -0.4827 H   0  0  0  0  0  0  0  0  0  0  0  0
   -2.9224    2.0306   -2.2836 H   0  0  0  0  0  0  0  0  0  0  0  0
   -5.3319    1.4978   -2.1435 H   0  0  0  0  0  0  0  0  0  0  0  0
   -6.0985   -0.3041   -0.5554 H   0  0  0  0  0  0  0  0  0  0  0  0
   -4.3529   -1.4480    0.7817 H   0  0  0  0  0  0  0  0  0  0  0  0
  1  2  1  0
  2  3  2  0
  3  4  1  0
  4  5  1  0
  5  6  2  0
  6  7  1  0
  7  8  2  0
  8  9  1  0
  9 10  2  0
 10 11  1  0
 11 12  2  0
 12 13  1  0
 13 14  2  0
  4 15  1  0
 15 16  1  0
 15 17  1  0
 15 18  1  0
 18 19  2  0
 19 20  1  0
 20 21  2  0
 21 22  1  0
 22 23  2  0
 23  2  1  0
 14  5  1  0
 23 18  1  0
 14  9  1  0
  1 24  1  0
  1 25  1  0
  1 26  1  0
  6 27  1  0
  7 28  1  0
  8 29  1  0
 10 30  1  0
 11 31  1  0
 12 32  1  0
 13 33  1  0
 19 34  1  0
 20 35  1  0
 21 36  1  0
 22 37  1  0
M  CHG  2  15  -1  18   1
M  END
