
     RDKit          3D

 50 54  0  0  0  0  0  0  0  0999 V2000
   -5.0767   -3.0472   -0.0610 C   0  0  0  0  0  0  0  0  0  0  0  0
   -3.6932   -2.5285   -0.0416 C   0  0  0  0  0  0  0  0  0  0  0  0
   -3.4115   -1.2451   -0.0163 N   0  0  0  0  0  4  0  0  0  0  0  0
   -2.0140   -1.1340   -0.0040 C   0  0  0  0  0  0  0  0  0  0  0  0
   -1.3726    0.0142    0.0353 C   0  0  0  0  0  0  0  0  0  0  0  0
    0.0774    0.1207    0.0455 C   0  0  0  0  0  0  0  0  0  0  0  0
    0.7985   -0.6078   -0.8803 C   0  0  0  0  0  0  0  0  0  0  0  0
    2.1588   -0.5647   -0.9003 C   0  0  0  0  0  0  0  0  0  0  0  0
    2.8952    0.2135    0.0078 C   0  0  0  0  0  0  0  0  0  0  0  0
    4.3104    0.2088   -0.0537 N   0  0  0  0  0  0  0  0  0  0  0  0
    4.9943   -0.8170   -0.8193 C   0  0  0  0  0  0  0  0  0  0  0  0
    6.3308   -1.1758   -0.2213 C   0  0  0  0  0  0  0  0  0  0  0  0
    6.9609   -0.1482    0.4310 O   0  0  0  0  0  0  0  0  0  0  0  0
    6.1668    0.4524    1.4061 C   0  0  0  0  0  0  0  0  0  0  0  0
    5.0884    1.2161    0.6195 C   0  0  0  0  0  0  0  0  0  0  0  0
    2.1544    0.9273    0.9168 C   0  0  0  0  0  0  0  0  0  0  0  0
    0.7539    0.8983    0.9563 C   0  0  0  0  0  0  0  0  0  0  0  0
   -2.1585    1.2574    0.0594 C   0  0  0  0  0  0  0  0  0  0  0  0
   -1.7452    2.5950    0.0941 C   0  0  0  0  0  0  0  0  0  0  0  0
   -2.8965    3.3537    0.0982 C   0  0  0  0  0  0  0  0  0  0  0  0
   -3.9730    2.5301    0.0673 C   0  0  0  0  0  0  0  0  0  0  0  0
   -5.3776    2.9539    0.0617 C   0  0  0  0  0  0  0  0  0  0  0  0
   -3.4965    1.2610    0.0438 N   0  0  0  0  0  0  0  0  0  0  0  0
   -4.3081   -0.0252   -0.0002 B   0  0  0  0  0  4  0  0  0  0  0  0
   -5.1476   -0.0332   -1.2184 F   0  0  0  0  0  0  0  0  0  0  0  0
   -5.2575   -0.0903    1.1028 F   0  0  0  0  0  0  0  0  0  0  0  0
   -1.4483   -2.4861   -0.0238 C   0  0  0  0  0  0  0  0  0  0  0  0
   -2.4928   -3.3208   -0.0468 C   0  0  0  0  0  0  0  0  0  0  0  0
   -5.8040   -2.2713    0.2512 H   0  0  0  0  0  0  0  0  0  0  0  0
   -5.3449   -3.4401   -1.0679 H   0  0  0  0  0  0  0  0  0  0  0  0
   -5.1917   -3.8940    0.6539 H   0  0  0  0  0  0  0  0  0  0  0  0
    0.2708   -1.2252   -1.6206 H   0  0  0  0  0  0  0  0  0  0  0  0
    2.6580   -1.1601   -1.6572 H   0  0  0  0  0  0  0  0  0  0  0  0
    5.0739   -0.4487   -1.8559 H   0  0  0  0  0  0  0  0  0  0  0  0
    4.3758   -1.7350   -0.8016 H   0  0  0  0  0  0  0  0  0  0  0  0
    6.9818   -1.5185   -1.0512 H   0  0  0  0  0  0  0  0  0  0  0  0
    6.2124   -2.0752    0.4548 H   0  0  0  0  0  0  0  0  0  0  0  0
    6.7850    1.1543    1.9801 H   0  0  0  0  0  0  0  0  0  0  0  0
    5.6489   -0.2575    2.0517 H   0  0  0  0  0  0  0  0  0  0  0  0
    4.5572    1.8995    1.2616 H   0  0  0  0  0  0  0  0  0  0  0  0
    5.6696    1.7300   -0.1892 H   0  0  0  0  0  0  0  0  0  0  0  0
    2.6743    1.5351    1.6359 H   0  0  0  0  0  0  0  0  0  0  0  0
    0.2417    1.4753    1.6991 H   0  0  0  0  0  0  0  0  0  0  0  0
   -0.7152    2.9236    0.1083 H   0  0  0  0  0  0  0  0  0  0  0  0
   -2.8572    4.4478    0.1238 H   0  0  0  0  0  0  0  0  0  0  0  0
   -5.4919    3.9928   -0.3502 H   0  0  0  0  0  0  0  0  0  0  0  0
   -6.0650    2.2501   -0.4163 H   0  0  0  0  0  0  0  0  0  0  0  0
   -5.7052    3.0283    1.1409 H   0  0  0  0  0  0  0  0  0  0  0  0
   -0.4180   -2.7906   -0.0154 H   0  0  0  0  0  0  0  0  0  0  0  0
   -2.3765   -4.3989   -0.0656 H   0  0  0  0  0  0  0  0  0  0  0  0
  1  2  1  0
  2  3  2  0
  3  4  1  0
  4  5  2  0
  5  6  1  0
  6  7  2  0
  7  8  1  0
  8  9  2  0
  9 10  1  0
 10 11  1  0
 11 12  1  0
 12 13  1  0
 13 14  1  0
 14 15  1  0
  9 16  1  0
 16 17  2  0
  5 18  1  0
 18 19  2  0
 19 20  1  0
 20 21  2  0
 21 22  1  0
 21 23  1  0
 23 24  1  0
 24 25  1  0
 24 26  1  0
  4 27  1  0
 27 28  2  0
 28  2  1  0
 24  3  1  0
 17  6  1  0
 23 18  1  0
 15 10  1  0
  1 29  1  0
  1 30  1  0
  1 31  1  0
  7 32  1  0
  8 33  1  0
 11 34  1  0
 11 35  1  0
 12 36  1  0
 12 37  1  0
 14 38  1  0
 14 39  1  0
 15 40  1  0
 15 41  1  0
 16 42  1  0
 17 43  1  0
 19 44  1  0
 20 45  1  0
 22 46  1  0
 22 47  1  0
 22 48  1  0
 27 49  1  0
 28 50  1  0
M  CHG  2   3   1  24  -1
M  END
