
     RDKit          3D

 38 40  0  0  0  0  0  0  0  0999 V2000
    5.1394    1.5346    1.8476 C   0  0  0  0  0  0  0  0  0  0  0  0
    4.7458    0.5487    0.9199 O   0  0  0  0  0  0  0  0  0  0  0  0
    3.4027    0.3720    0.6359 C   0  0  0  0  0  0  0  0  0  0  0  0
    2.9994   -0.5979   -0.2783 C   0  0  0  0  0  0  0  0  0  0  0  0
    1.6694   -0.7953   -0.5797 C   0  0  0  0  0  0  0  0  0  0  0  0
    1.3643   -1.7705   -1.4896 O   0  0  0  0  0  0  0  0  0  0  0  0
    2.2885   -2.5857   -2.1413 C   0  0  0  0  0  0  0  0  0  0  0  0
    0.7438    0.0034    0.0568 C   0  0  0  0  0  0  0  0  0  0  0  0
    1.1361    0.9732    0.9700 C   0  0  0  0  0  0  0  0  0  0  0  0
    2.4711    1.1436    1.2474 C   0  0  0  0  0  0  0  0  0  0  0  0
   -0.0547    1.6516    1.4732 C   0  0  0  0  0  0  0  0  0  0  0  0
   -0.1339    2.5827    2.3078 O   0  0  0  0  0  0  0  0  0  0  0  0
   -1.2112    1.0386    0.8121 C   0  0  0  0  0  0  0  0  0  0  0  0
   -2.5602    1.2647    0.8918 C   0  0  0  0  0  0  0  0  0  0  0  0
   -3.4519    0.5400    0.1542 C   0  0  0  0  0  0  0  0  0  0  0  0
   -4.8099    0.8127    0.2752 O   0  0  0  0  0  0  0  0  0  0  0  0
   -5.3071    1.8004    1.1222 C   0  0  0  0  0  0  0  0  0  0  0  0
   -2.9822   -0.4353   -0.6842 C   0  0  0  0  0  0  0  0  0  0  0  0
   -1.6284   -0.6864   -0.7861 C   0  0  0  0  0  0  0  0  0  0  0  0
   -1.1531   -1.6814   -1.6418 O   0  0  0  0  0  0  0  0  0  0  0  0
   -2.0615   -2.4446   -2.4158 C   0  0  0  0  0  0  0  0  0  0  0  0
   -0.7356    0.0473   -0.0402 C   0  0  0  0  0  0  0  0  0  0  0  0
    4.6983    1.2366    2.8300 H   0  0  0  0  0  0  0  0  0  0  0  0
    4.6562    2.4836    1.5650 H   0  0  0  0  0  0  0  0  0  0  0  0
    6.2471    1.6145    1.8895 H   0  0  0  0  0  0  0  0  0  0  0  0
    3.7685   -1.1997   -0.7513 H   0  0  0  0  0  0  0  0  0  0  0  0
    2.6859   -3.3223   -1.3849 H   0  0  0  0  0  0  0  0  0  0  0  0
    3.1794   -2.0390   -2.5140 H   0  0  0  0  0  0  0  0  0  0  0  0
    1.8235   -3.1860   -2.9339 H   0  0  0  0  0  0  0  0  0  0  0  0
    2.7208    1.9252    1.9771 H   0  0  0  0  0  0  0  0  0  0  0  0
   -2.8895    2.0529    1.5740 H   0  0  0  0  0  0  0  0  0  0  0  0
   -6.4073    1.8292    1.0626 H   0  0  0  0  0  0  0  0  0  0  0  0
   -5.0588    1.5661    2.1886 H   0  0  0  0  0  0  0  0  0  0  0  0
   -4.8635    2.8087    0.9316 H   0  0  0  0  0  0  0  0  0  0  0  0
   -3.6608   -1.0271   -1.2820 H   0  0  0  0  0  0  0  0  0  0  0  0
   -1.4307   -3.0318   -3.1356 H   0  0  0  0  0  0  0  0  0  0  0  0
   -2.5439   -3.1933   -1.7260 H   0  0  0  0  0  0  0  0  0  0  0  0
   -2.7960   -1.8342   -2.9477 H   0  0  0  0  0  0  0  0  0  0  0  0
  1  2  1  0
  2  3  1  0
  3  4  2  0
  4  5  1  0
  5  6  1  0
  6  7  1  0
  5  8  2  0
  8  9  1  0
  9 10  2  0
  9 11  1  0
 11 12  2  0
 11 13  1  0
 13 14  2  0
 14 15  1  0
 15 16  1  0
 16 17  1  0
 15 18  2  0
 18 19  1  0
 19 20  1  0
 20 21  1  0
 19 22  2  0
 10  3  1  0
 22 13  1  0
 22  8  1  0
  1 23  1  0
  1 24  1  0
  1 25  1  0
  4 26  1  0
  7 27  1  0
  7 28  1  0
  7 29  1  0
 10 30  1  0
 14 31  1  0
 17 32  1  0
 17 33  1  0
 17 34  1  0
 18 35  1  0
 21 36  1  0
 21 37  1  0
 21 38  1  0
M  END
