
     RDKit          3D

 68 74  0  0  0  0  0  0  0  0999 V2000
   12.8565   -4.9738   -2.5169 C   0  0  0  0  0  0  0  0  0  0  0  0
   12.7677   -3.4691   -2.5351 C   0  0  0  0  0  0  0  0  0  0  0  0
   11.7181   -2.9620   -1.6131 C   0  0  0  0  0  0  0  0  0  0  0  0
   11.9949   -2.6361   -0.2797 C   0  0  0  0  0  0  0  0  0  0  0  0
   10.9791   -2.1668    0.5411 C   0  0  0  0  0  0  0  0  0  0  0  0
    9.7034   -2.0127    0.0807 C   0  0  0  0  0  0  0  0  0  0  0  0
    8.6219   -1.5067    0.9191 C   0  0  0  0  0  0  0  0  0  0  0  0
    8.6907   -1.0632    2.2111 C   0  0  0  0  0  0  0  0  0  0  0  0
    7.5662   -0.6232    2.7827 C   0  0  0  0  0  0  0  0  0  0  0  0
    6.4209   -0.6530    2.0181 C   0  0  0  0  0  0  0  0  0  0  0  0
    5.0677   -0.2074    2.4091 C   0  0  0  0  0  0  0  0  0  0  0  0
    4.6614    0.3561    3.5344 N   0  0  0  0  0  0  0  0  0  0  0  0
    3.3440    0.5873    3.4290 N   0  0  0  0  0  0  0  0  0  0  0  0
    2.9483    0.1555    2.2219 C   0  0  0  0  0  0  0  0  0  0  0  0
    1.5959    0.2105    1.6923 C   0  0  0  0  0  0  0  0  0  0  0  0
    0.6120    0.8081    2.4225 C   0  0  0  0  0  0  0  0  0  0  0  0
   -0.6772    0.8253    1.8882 C   0  0  0  0  0  0  0  0  0  0  0  0
   -0.9694    0.2674    0.6750 C   0  0  0  0  0  0  0  0  0  0  0  0
   -2.3256    0.3187    0.1618 C   0  0  0  0  0  0  0  0  0  0  0  0
   -2.7169   -0.2644   -1.0145 N   0  0  0  0  0  0  0  0  0  0  0  0
   -4.0003   -0.0446   -1.2023 N   0  0  0  0  0  0  0  0  0  0  0  0
   -4.4379    0.6805   -0.1492 C   0  0  0  0  0  0  0  0  0  0  0  0
   -5.8127    1.1606    0.0645 C   0  0  0  0  0  0  0  0  0  0  0  0
   -6.3099    1.9227    1.0782 C   0  0  0  0  0  0  0  0  0  0  0  0
   -7.6110    2.2293    1.0462 C   0  0  0  0  0  0  0  0  0  0  0  0
   -8.3459    1.7514   -0.0060 C   0  0  0  0  0  0  0  0  0  0  0  0
   -9.7830    1.9396   -0.2788 C   0  0  0  0  0  0  0  0  0  0  0  0
  -10.5209    2.7032    0.5805 C   0  0  0  0  0  0  0  0  0  0  0  0
  -11.8827    2.9294    0.3928 C   0  0  0  0  0  0  0  0  0  0  0  0
  -12.4930    2.3480   -0.7146 C   0  0  0  0  0  0  0  0  0  0  0  0
  -13.9404    2.5588   -0.9696 C   0  0  0  0  0  0  0  0  0  0  0  0
  -14.1189    3.7918   -1.8451 C   0  0  0  0  0  0  0  0  0  0  0  0
  -11.7265    1.5890   -1.5549 C   0  0  0  0  0  0  0  0  0  0  0  0
  -10.3766    1.3627   -1.3722 C   0  0  0  0  0  0  0  0  0  0  0  0
   -7.1783    0.8852   -0.9181 S   0  0  0  0  0  0  0  0  0  0  0  0
   -3.4105    0.8730    0.6363 O   0  0  0  0  0  0  0  0  0  0  0  0
    0.0390   -0.3319   -0.0478 C   0  0  0  0  0  0  0  0  0  0  0  0
    1.3413   -0.3594    0.4713 C   0  0  0  0  0  0  0  0  0  0  0  0
    4.0309   -0.3195    1.6373 O   0  0  0  0  0  0  0  0  0  0  0  0
    6.9701   -1.2943    0.5378 S   0  0  0  0  0  0  0  0  0  0  0  0
    9.4447   -2.3366   -1.2310 C   0  0  0  0  0  0  0  0  0  0  0  0
   10.4339   -2.8067   -2.0769 C   0  0  0  0  0  0  0  0  0  0  0  0
   11.9162   -5.4725   -2.2349 H   0  0  0  0  0  0  0  0  0  0  0  0
   13.0797   -5.2980   -3.5646 H   0  0  0  0  0  0  0  0  0  0  0  0
   13.7036   -5.3090   -1.8856 H   0  0  0  0  0  0  0  0  0  0  0  0
   12.6104   -3.0809   -3.5708 H   0  0  0  0  0  0  0  0  0  0  0  0
   13.7815   -3.0943   -2.2343 H   0  0  0  0  0  0  0  0  0  0  0  0
   12.9935   -2.7489    0.1093 H   0  0  0  0  0  0  0  0  0  0  0  0
   11.1622   -1.9076    1.5836 H   0  0  0  0  0  0  0  0  0  0  0  0
    9.6696   -1.0842    2.7397 H   0  0  0  0  0  0  0  0  0  0  0  0
    7.5026   -0.2392    3.8262 H   0  0  0  0  0  0  0  0  0  0  0  0
    0.7591    1.2761    3.3972 H   0  0  0  0  0  0  0  0  0  0  0  0
   -1.4606    1.2908    2.4499 H   0  0  0  0  0  0  0  0  0  0  0  0
   -5.6287    2.2629    1.8960 H   0  0  0  0  0  0  0  0  0  0  0  0
   -8.1207    2.8455    1.8233 H   0  0  0  0  0  0  0  0  0  0  0  0
  -10.1021    3.1887    1.4683 H   0  0  0  0  0  0  0  0  0  0  0  0
  -12.4868    3.5188    1.0407 H   0  0  0  0  0  0  0  0  0  0  0  0
  -14.2772    1.6946   -1.5831 H   0  0  0  0  0  0  0  0  0  0  0  0
  -14.4979    2.6764   -0.0209 H   0  0  0  0  0  0  0  0  0  0  0  0
  -13.1266    4.0892   -2.2239 H   0  0  0  0  0  0  0  0  0  0  0  0
  -14.4988    4.5933   -1.2079 H   0  0  0  0  0  0  0  0  0  0  0  0
  -14.8049    3.5879   -2.7038 H   0  0  0  0  0  0  0  0  0  0  0  0
  -12.1735    1.1171   -2.4401 H   0  0  0  0  0  0  0  0  0  0  0  0
   -9.8012    0.7480   -2.0687 H   0  0  0  0  0  0  0  0  0  0  0  0
   -0.1724   -0.7726   -0.9958 H   0  0  0  0  0  0  0  0  0  0  0  0
    2.1524   -0.8225   -0.0705 H   0  0  0  0  0  0  0  0  0  0  0  0
    8.4465   -2.2278   -1.6313 H   0  0  0  0  0  0  0  0  0  0  0  0
   10.2028   -3.0542   -3.1068 H   0  0  0  0  0  0  0  0  0  0  0  0
  1  2  1  0
  2  3  1  0
  3  4  2  0
  4  5  1  0
  5  6  2  0
  6  7  1  0
  7  8  2  0
  8  9  1  0
  9 10  2  0
 10 11  1  0
 11 12  2  0
 12 13  1  0
 13 14  2  0
 14 15  1  0
 15 16  2  0
 16 17  1  0
 17 18  2  0
 18 19  1  0
 19 20  2  0
 20 21  1  0
 21 22  2  0
 22 23  1  0
 23 24  2  0
 24 25  1  0
 25 26  2  0
 26 27  1  0
 27 28  2  0
 28 29  1  0
 29 30  2  0
 30 31  1  0
 31 32  1  0
 30 33  1  0
 33 34  2  0
 26 35  1  0
 22 36  1  0
 18 37  1  0
 37 38  2  0
 14 39  1  0
 10 40  1  0
  6 41  1  0
 41 42  2  0
 42  3  1  0
 40  7  1  0
 39 11  1  0
 38 15  1  0
 36 19  1  0
 35 23  1  0
 34 27  1  0
  1 43  1  0
  1 44  1  0
  1 45  1  0
  2 46  1  0
  2 47  1  0
  4 48  1  0
  5 49  1  0
  8 50  1  0
  9 51  1  0
 16 52  1  0
 17 53  1  0
 24 54  1  0
 25 55  1  0
 28 56  1  0
 29 57  1  0
 31 58  1  0
 31 59  1  0
 32 60  1  0
 32 61  1  0
 32 62  1  0
 33 63  1  0
 34 64  1  0
 37 65  1  0
 38 66  1  0
 41 67  1  0
 42 68  1  0
M  END
