
     RDKit          3D

 40 44  0  0  0  0  0  0  0  0999 V2000
   -5.4959   -0.2294   -0.3520 C   0  0  0  0  0  0  0  0  0  0  0  0
   -4.6927    0.3325   -1.3571 C   0  0  0  0  0  0  0  0  0  0  0  0
   -3.3885    0.3033   -1.0968 N   0  0  0  0  0  0  0  0  0  0  0  0
   -2.7519   -0.1668   -0.0558 C   0  0  0  0  0  0  0  0  0  0  0  0
   -1.2965   -0.0856   -0.0020 C   0  0  0  0  0  0  0  0  0  0  0  0
   -0.6283    1.0227    0.5179 C   0  0  0  0  0  0  0  0  0  0  0  0
   -1.4210    2.0525    0.9909 C   0  0  0  0  0  0  0  0  0  0  0  0
   -0.7914    3.1521    1.5072 C   0  0  0  0  0  0  0  0  0  0  0  0
    0.5860    3.2251    1.5518 C   0  0  0  0  0  0  0  0  0  0  0  0
    1.3609    2.2181    1.0895 C   0  0  0  0  0  0  0  0  0  0  0  0
    0.7415    1.1043    0.5664 C   0  0  0  0  0  0  0  0  0  0  0  0
    1.5124    0.0554    0.0856 C   0  0  0  0  0  0  0  0  0  0  0  0
    2.9595    0.1462    0.1337 C   0  0  0  0  0  0  0  0  0  0  0  0
    3.6493    0.8522   -0.8222 C   0  0  0  0  0  0  0  0  0  0  0  0
    4.9901    0.9338   -0.7737 N   0  0  0  0  0  0  0  0  0  0  0  0
    5.7363    0.3533    0.1772 C   0  0  0  0  0  0  0  0  0  0  0  0
    5.0492   -0.3390    1.1128 N   0  0  0  0  0  0  0  0  0  0  0  0
    3.7101   -0.4498    1.1079 C   0  0  0  0  0  0  0  0  0  0  0  0
    0.8772   -1.0688   -0.4406 C   0  0  0  0  0  0  0  0  0  0  0  0
    1.6522   -2.1015   -0.9104 C   0  0  0  0  0  0  0  0  0  0  0  0
    1.0256   -3.2032   -1.4233 C   0  0  0  0  0  0  0  0  0  0  0  0
   -0.3541   -3.2515   -1.4568 C   0  0  0  0  0  0  0  0  0  0  0  0
   -1.1164   -2.2214   -0.9883 C   0  0  0  0  0  0  0  0  0  0  0  0
   -0.4874   -1.1186   -0.4746 C   0  0  0  0  0  0  0  0  0  0  0  0
   -3.5426   -0.6820    0.8585 N   0  0  0  0  0  0  0  0  0  0  0  0
   -4.8613   -0.7344    0.7601 C   0  0  0  0  0  0  0  0  0  0  0  0
   -6.5868   -0.2528   -0.4730 H   0  0  0  0  0  0  0  0  0  0  0  0
   -5.1554    0.7324   -2.2329 H   0  0  0  0  0  0  0  0  0  0  0  0
   -2.4829    1.9208    0.9201 H   0  0  0  0  0  0  0  0  0  0  0  0
   -1.4162    3.9553    1.8745 H   0  0  0  0  0  0  0  0  0  0  0  0
    1.0966    4.1075    1.9654 H   0  0  0  0  0  0  0  0  0  0  0  0
    2.4583    2.2126    1.0957 H   0  0  0  0  0  0  0  0  0  0  0  0
    3.1795    1.3744   -1.6544 H   0  0  0  0  0  0  0  0  0  0  0  0
    6.8174    0.4195    0.2146 H   0  0  0  0  0  0  0  0  0  0  0  0
    3.2535   -1.0437    1.9280 H   0  0  0  0  0  0  0  0  0  0  0  0
    2.7439   -1.9944   -0.8516 H   0  0  0  0  0  0  0  0  0  0  0  0
    1.6400   -4.0219   -1.7940 H   0  0  0  0  0  0  0  0  0  0  0  0
   -0.8812   -4.1222   -1.8620 H   0  0  0  0  0  0  0  0  0  0  0  0
   -2.1991   -2.2070   -0.9909 H   0  0  0  0  0  0  0  0  0  0  0  0
   -5.4902   -1.1799    1.5547 H   0  0  0  0  0  0  0  0  0  0  0  0
  1  2  2  0
  2  3  1  0
  3  4  2  0
  4  5  1  0
  5  6  1  0
  6  7  2  0
  7  8  1  0
  8  9  2  0
  9 10  1  0
 10 11  2  0
 11 12  1  0
 12 13  1  0
 13 14  2  0
 14 15  1  0
 15 16  2  0
 16 17  1  0
 17 18  2  0
 12 19  2  0
 19 20  1  0
 20 21  2  0
 21 22  1  0
 22 23  2  0
 23 24  1  0
  4 25  1  0
 25 26  2  0
 26  1  1  0
 24  5  2  0
 11  6  1  0
 18 13  1  0
 24 19  1  0
  1 27  1  0
  2 28  1  0
  7 29  1  0
  8 30  1  0
  9 31  1  0
 10 32  1  0
 14 33  1  0
 16 34  1  0
 18 35  1  0
 20 36  1  0
 21 37  1  0
 22 38  1  0
 23 39  1  0
 26 40  1  0
M  END
