
     RDKit          3D

 68 74  0  0  0  0  0  0  0  0999 V2000
    4.1787   -6.1493   -0.3381 C   0  0  0  0  0  0  0  0  0  0  0  0
    4.9560   -5.0065   -0.6111 O   0  0  0  0  0  0  0  0  0  0  0  0
    4.3591   -3.7571   -0.5933 C   0  0  0  0  0  0  0  0  0  0  0  0
    5.0959   -2.6146   -0.8574 C   0  0  0  0  0  0  0  0  0  0  0  0
    4.4948   -1.3532   -0.8398 C   0  0  0  0  0  0  0  0  0  0  0  0
    3.1372   -1.2236   -0.5547 C   0  0  0  0  0  0  0  0  0  0  0  0
    2.5327    0.1024   -0.5423 C   0  0  0  0  0  0  0  0  0  0  0  0
    3.1203    1.2537   -0.7752 C   0  0  0  0  0  0  0  0  0  0  0  0
    2.1493    2.3539   -0.6623 C   0  0  0  0  0  0  0  0  0  0  0  0
    2.5806    3.7397   -0.8960 C   0  0  0  0  0  0  0  0  0  0  0  0
    3.9381    3.9836   -1.1265 C   0  0  0  0  0  0  0  0  0  0  0  0
    4.4375    5.2423   -1.3677 C   0  0  0  0  0  0  0  0  0  0  0  0
    3.6247    6.3294   -1.3945 C   0  0  0  0  0  0  0  0  0  0  0  0
    2.2863    6.1162   -1.1709 C   0  0  0  0  0  0  0  0  0  0  0  0
    1.7667    4.8303   -0.9233 C   0  0  0  0  0  0  0  0  0  0  0  0
    0.9923    1.8707   -0.3657 N   0  0  0  0  0  4  0  0  0  0  0  0
    1.1448    0.4603   -0.2704 C   0  0  0  0  0  0  0  0  0  0  0  0
    0.1831   -0.3049    0.0120 N   0  0  0  0  0  0  0  0  0  0  0  0
   -1.1491    0.1750    0.2628 C   0  0  0  0  0  0  0  0  0  0  0  0
   -2.2915   -0.5230    0.5888 C   0  0  0  0  0  0  0  0  0  0  0  0
   -2.3618   -1.9683    0.7387 C   0  0  0  0  0  0  0  0  0  0  0  0
   -1.3383   -2.5648    1.4670 C   0  0  0  0  0  0  0  0  0  0  0  0
   -1.3533   -3.9346    1.6418 C   0  0  0  0  0  0  0  0  0  0  0  0
   -2.3469   -4.7354    1.1204 C   0  0  0  0  0  0  0  0  0  0  0  0
   -2.3448   -6.1160    1.3074 O   0  0  0  0  0  0  0  0  0  0  0  0
   -3.3972   -6.8831    0.7442 C   0  0  0  0  0  0  0  0  0  0  0  0
   -3.3446   -4.0869    0.4014 C   0  0  0  0  0  0  0  0  0  0  0  0
   -3.3645   -2.7286    0.2061 C   0  0  0  0  0  0  0  0  0  0  0  0
   -3.2870    0.3653    0.7343 C   0  0  0  0  0  0  0  0  0  0  0  0
   -2.7746    1.6543    0.4976 C   0  0  0  0  0  0  0  0  0  0  0  0
   -3.5988    2.8460    0.5922 C   0  0  0  0  0  0  0  0  0  0  0  0
   -3.2203    4.1306    0.3310 C   0  0  0  0  0  0  0  0  0  0  0  0
   -4.0652    5.2375    0.4599 C   0  0  0  0  0  0  0  0  0  0  0  0
   -5.3622    5.0745    0.8702 C   0  0  0  0  0  0  0  0  0  0  0  0
   -5.7836    3.8001    1.1428 C   0  0  0  0  0  0  0  0  0  0  0  0
   -4.9363    2.7264    1.0096 C   0  0  0  0  0  0  0  0  0  0  0  0
   -1.4641    1.4705    0.2146 N   0  0  0  0  0  0  0  0  0  0  0  0
   -0.3831    2.5177   -0.1305 B   0  0  0  0  0  4  0  0  0  0  0  0
   -0.1981    3.4215    0.9576 F   0  0  0  0  0  0  0  0  0  0  0  0
   -0.7458    3.0618   -1.4281 F   0  0  0  0  0  0  0  0  0  0  0  0
    2.4358   -2.3771   -0.2973 C   0  0  0  0  0  0  0  0  0  0  0  0
    3.0210   -3.6252   -0.3127 C   0  0  0  0  0  0  0  0  0  0  0  0
    3.6421   -5.9503    0.6330 H   0  0  0  0  0  0  0  0  0  0  0  0
    3.3830   -6.2598   -1.1055 H   0  0  0  0  0  0  0  0  0  0  0  0
    4.8029   -7.0620   -0.2565 H   0  0  0  0  0  0  0  0  0  0  0  0
    6.1334   -2.7177   -1.0749 H   0  0  0  0  0  0  0  0  0  0  0  0
    5.1137   -0.4956   -1.0524 H   0  0  0  0  0  0  0  0  0  0  0  0
    4.1855    1.2871   -1.0134 H   0  0  0  0  0  0  0  0  0  0  0  0
    4.6368    3.1446   -1.1117 H   0  0  0  0  0  0  0  0  0  0  0  0
    5.5090    5.3244   -1.5347 H   0  0  0  0  0  0  0  0  0  0  0  0
    4.0466    7.3015   -1.5860 H   0  0  0  0  0  0  0  0  0  0  0  0
    1.6221    6.9669   -1.1877 H   0  0  0  0  0  0  0  0  0  0  0  0
    0.7213    4.7850   -0.7709 H   0  0  0  0  0  0  0  0  0  0  0  0
   -0.5359   -1.9468    1.8919 H   0  0  0  0  0  0  0  0  0  0  0  0
   -0.5576   -4.4143    2.2101 H   0  0  0  0  0  0  0  0  0  0  0  0
   -4.3723   -6.5646    1.1917 H   0  0  0  0  0  0  0  0  0  0  0  0
   -3.2658   -7.9534    0.9005 H   0  0  0  0  0  0  0  0  0  0  0  0
   -3.4303   -6.6012   -0.3419 H   0  0  0  0  0  0  0  0  0  0  0  0
   -4.1353   -4.7017   -0.0165 H   0  0  0  0  0  0  0  0  0  0  0  0
   -4.1554   -2.2293   -0.3619 H   0  0  0  0  0  0  0  0  0  0  0  0
   -4.3413    0.1672    0.9909 H   0  0  0  0  0  0  0  0  0  0  0  0
   -2.2517    4.3706    0.0036 H   0  0  0  0  0  0  0  0  0  0  0  0
   -3.6764    6.2283    0.2294 H   0  0  0  0  0  0  0  0  0  0  0  0
   -6.0390    5.9285    0.9772 H   0  0  0  0  0  0  0  0  0  0  0  0
   -6.8020    3.6412    1.4684 H   0  0  0  0  0  0  0  0  0  0  0  0
   -5.3503    1.7476    1.2486 H   0  0  0  0  0  0  0  0  0  0  0  0
    1.3866   -2.3067   -0.0742 H   0  0  0  0  0  0  0  0  0  0  0  0
    2.4068   -4.5010   -0.0994 H   0  0  0  0  0  0  0  0  0  0  0  0
  1  2  1  0
  2  3  1  0
  3  4  2  0
  4  5  1  0
  5  6  2  0
  6  7  1  0
  7  8  2  0
  8  9  1  0
  9 10  1  0
 10 11  2  0
 11 12  1  0
 12 13  2  0
 13 14  1  0
 14 15  2  0
  9 16  2  0
 16 17  1  0
 17 18  2  0
 18 19  1  0
 19 20  2  0
 20 21  1  0
 21 22  2  0
 22 23  1  0
 23 24  2  0
 24 25  1  0
 25 26  1  0
 24 27  1  0
 27 28  2  0
 20 29  1  0
 29 30  2  0
 30 31  1  0
 31 32  2  0
 32 33  1  0
 33 34  2  0
 34 35  1  0
 35 36  2  0
 30 37  1  0
 37 38  1  0
 38 39  1  0
 38 40  1  0
  6 41  1  0
 41 42  2  0
 42  3  1  0
 17  7  1  0
 37 19  1  0
 15 10  1  0
 38 16  1  0
 28 21  1  0
 36 31  1  0
  1 43  1  0
  1 44  1  0
  1 45  1  0
  4 46  1  0
  5 47  1  0
  8 48  1  0
 11 49  1  0
 12 50  1  0
 13 51  1  0
 14 52  1  0
 15 53  1  0
 22 54  1  0
 23 55  1  0
 26 56  1  0
 26 57  1  0
 26 58  1  0
 27 59  1  0
 28 60  1  0
 29 61  1  0
 32 62  1  0
 33 63  1  0
 34 64  1  0
 35 65  1  0
 36 66  1  0
 41 67  1  0
 42 68  1  0
M  CHG  2  16   1  38  -1
M  END
