
     RDKit          3D

 62 66  0  0  0  0  0  0  0  0999 V2000
   -9.4647   -2.1812    0.1360 C   0  0  0  0  0  0  0  0  0  0  0  0
   -8.8923   -1.3398   -0.9654 C   0  0  0  0  0  0  0  0  0  0  0  0
   -8.3144   -0.0959   -0.4667 N   0  0  0  0  0  0  0  0  0  0  0  0
   -9.1734    0.9346    0.0806 C   0  0  0  0  0  0  0  0  0  0  0  0
   -8.3204    2.1461    0.4403 C   0  0  0  0  0  0  0  0  0  0  0  0
   -6.9128    0.0649   -0.5236 C   0  0  0  0  0  0  0  0  0  0  0  0
   -6.2454    0.9081   -1.3750 C   0  0  0  0  0  0  0  0  0  0  0  0
   -4.8716    0.9947   -1.3942 C   0  0  0  0  0  0  0  0  0  0  0  0
   -4.1311    0.2102   -0.5313 C   0  0  0  0  0  0  0  0  0  0  0  0
   -2.7360    0.2674   -0.5214 C   0  0  0  0  0  0  0  0  0  0  0  0
   -2.1037   -0.5620    0.3800 C   0  0  0  0  0  0  0  0  0  0  0  0
   -0.6414   -0.5975    0.4587 C   0  0  0  0  0  0  0  0  0  0  0  0
    0.2200    0.0980   -0.3002 N   0  0  0  0  0  0  0  0  0  0  0  0
    1.4570   -0.2213    0.0868 C   0  0  0  0  0  0  0  0  0  0  0  0
    2.6938    0.2019   -0.3607 C   0  0  0  0  0  0  0  0  0  0  0  0
    3.8337   -0.3015    0.2277 C   0  0  0  0  0  0  0  0  0  0  0  0
    5.1340    0.1740   -0.3090 C   0  0  0  0  0  0  0  0  0  0  0  0
    5.1315    0.8062   -1.4022 O   0  0  0  0  0  0  0  0  0  0  0  0
    6.3513   -0.0571    0.3560 N   0  0  0  0  0  0  0  0  0  0  0  0
    7.6464    0.3312   -0.0598 C   0  0  0  0  0  0  0  0  0  0  0  0
    7.8493    0.9076   -1.3186 C   0  0  0  0  0  0  0  0  0  0  0  0
    9.1297    1.2796   -1.7090 C   0  0  0  0  0  0  0  0  0  0  0  0
   10.2241    1.1017   -0.8990 C   0  0  0  0  0  0  0  0  0  0  0  0
   11.5914    1.5210   -1.3443 C   0  0  0  0  0  0  0  0  0  0  0  0
    9.9946    0.5326    0.3273 C   0  0  0  0  0  0  0  0  0  0  0  0
    8.7275    0.1392    0.7761 C   0  0  0  0  0  0  0  0  0  0  0  0
    8.6403   -0.4091    2.0680 N   0  0  0  0  0  4  0  0  0  0  0  0
    7.8902   -1.2984    2.4530 O   0  0  0  0  0  0  0  0  0  0  0  0
    9.5461    0.1106    3.0172 O   0  0  0  0  0  1  0  0  0  0  0  0
    3.7221   -1.2043    1.2376 C   0  0  0  0  0  0  0  0  0  0  0  0
    2.4828   -1.6541    1.7128 C   0  0  0  0  0  0  0  0  0  0  0  0
    1.3624   -1.1354    1.1083 C   0  0  0  0  0  0  0  0  0  0  0  0
    0.0805   -1.3139    1.2792 O   0  0  0  0  0  0  0  0  0  0  0  0
   -2.8427   -1.3754    1.1944 C   0  0  0  0  0  0  0  0  0  0  0  0
   -2.2453   -2.1418    2.0274 O   0  0  0  0  0  0  0  0  0  0  0  0
   -4.1420   -1.4321    1.1879 O   0  0  0  0  0  0  0  0  0  0  0  0
   -4.7866   -0.6433    0.3288 C   0  0  0  0  0  0  0  0  0  0  0  0
   -6.1695   -0.7333    0.3521 C   0  0  0  0  0  0  0  0  0  0  0  0
   -9.5420   -1.6523    1.1146 H   0  0  0  0  0  0  0  0  0  0  0  0
  -10.4827   -2.5849   -0.1181 H   0  0  0  0  0  0  0  0  0  0  0  0
   -8.8031   -3.0714    0.2485 H   0  0  0  0  0  0  0  0  0  0  0  0
   -8.1390   -1.8406   -1.5833 H   0  0  0  0  0  0  0  0  0  0  0  0
   -9.7310   -1.0669   -1.6608 H   0  0  0  0  0  0  0  0  0  0  0  0
   -9.6168    0.5413    1.0319 H   0  0  0  0  0  0  0  0  0  0  0  0
  -10.0039    1.1545   -0.5885 H   0  0  0  0  0  0  0  0  0  0  0  0
   -7.2963    1.8552    0.7068 H   0  0  0  0  0  0  0  0  0  0  0  0
   -8.7930    2.6014    1.3433 H   0  0  0  0  0  0  0  0  0  0  0  0
   -8.3282    2.8475   -0.4312 H   0  0  0  0  0  0  0  0  0  0  0  0
   -6.8102    1.5242   -2.0572 H   0  0  0  0  0  0  0  0  0  0  0  0
   -4.3525    1.6802   -2.0905 H   0  0  0  0  0  0  0  0  0  0  0  0
   -2.2159    0.9391   -1.1985 H   0  0  0  0  0  0  0  0  0  0  0  0
    2.7316    0.9187   -1.1619 H   0  0  0  0  0  0  0  0  0  0  0  0
    6.2528   -0.5818    1.2736 H   0  0  0  0  0  0  0  0  0  0  0  0
    7.0710    1.0794   -2.0341 H   0  0  0  0  0  0  0  0  0  0  0  0
    9.2959    1.7344   -2.7006 H   0  0  0  0  0  0  0  0  0  0  0  0
   12.3894    0.9606   -0.8115 H   0  0  0  0  0  0  0  0  0  0  0  0
   11.7684    2.5889   -1.1564 H   0  0  0  0  0  0  0  0  0  0  0  0
   11.6732    1.3703   -2.4416 H   0  0  0  0  0  0  0  0  0  0  0  0
   10.8440    0.3734    0.9991 H   0  0  0  0  0  0  0  0  0  0  0  0
    4.5959   -1.6083    1.7227 H   0  0  0  0  0  0  0  0  0  0  0  0
    2.4288   -2.3849    2.5220 H   0  0  0  0  0  0  0  0  0  0  0  0
   -6.6518   -1.4105    1.0342 H   0  0  0  0  0  0  0  0  0  0  0  0
  1  2  1  0
  2  3  1  0
  3  4  1  0
  4  5  1  0
  3  6  1  0
  6  7  2  0
  7  8  1  0
  8  9  2  0
  9 10  1  0
 10 11  2  0
 11 12  1  0
 12 13  2  0
 13 14  1  0
 14 15  2  0
 15 16  1  0
 16 17  1  0
 17 18  2  0
 17 19  1  0
 19 20  1  0
 20 21  2  0
 21 22  1  0
 22 23  2  0
 23 24  1  0
 23 25  1  0
 25 26  2  0
 26 27  1  0
 27 28  2  0
 27 29  1  0
 16 30  2  0
 30 31  1  0
 31 32  2  0
 32 33  1  0
 11 34  1  0
 34 35  2  0
 34 36  1  0
 36 37  1  0
 37 38  2  0
 38  6  1  0
 37  9  1  0
 33 12  1  0
 32 14  1  0
 26 20  1  0
  1 39  1  0
  1 40  1  0
  1 41  1  0
  2 42  1  0
  2 43  1  0
  4 44  1  0
  4 45  1  0
  5 46  1  0
  5 47  1  0
  5 48  1  0
  7 49  1  0
  8 50  1  0
 10 51  1  0
 15 52  1  0
 19 53  1  0
 21 54  1  0
 22 55  1  0
 24 56  1  0
 24 57  1  0
 24 58  1  0
 25 59  1  0
 30 60  1  0
 31 61  1  0
 38 62  1  0
M  CHG  2  27   1  29  -1
M  END
