
     RDKit          3D

 51 54  0  0  0  0  0  0  0  0999 V2000
   -5.1479   -4.3683    0.5159 C   0  0  0  0  0  0  0  0  0  0  0  0
   -4.5596   -3.5725   -0.4616 O   0  0  0  0  0  0  0  0  0  0  0  0
   -3.5072   -2.7154   -0.2410 C   0  0  0  0  0  0  0  0  0  0  0  0
   -2.9740   -1.9578   -1.2517 C   0  0  0  0  0  0  0  0  0  0  0  0
   -1.9287   -1.1048   -1.0538 C   0  0  0  0  0  0  0  0  0  0  0  0
   -1.3584   -0.9796    0.2027 C   0  0  0  0  0  0  0  0  0  0  0  0
   -0.1914   -0.0503    0.3833 C   0  0  0  0  0  0  0  0  0  0  0  0
    0.9604   -0.4506   -0.1465 N   0  0  0  0  0  0  0  0  0  0  0  0
    2.0243    0.3242   -0.0232 C   0  0  0  0  0  0  0  0  0  0  0  0
    3.3678    0.0506   -0.6007 C   0  0  0  0  0  0  0  0  0  0  0  0
    4.3740    1.0447   -0.4944 C   0  0  0  0  0  0  0  0  0  0  0  0
    5.1937    1.8381   -0.4183 N   0  0  0  0  0  0  0  0  0  0  0  0
    3.5647   -1.0600   -1.2228 C   0  0  0  0  0  0  0  0  0  0  0  0
    4.8442   -1.3931   -1.8132 C   0  0  0  0  0  0  0  0  0  0  0  0
    4.7838   -1.8963   -3.1289 C   0  0  0  0  0  0  0  0  0  0  0  0
    5.9405   -2.2644   -3.7414 C   0  0  0  0  0  0  0  0  0  0  0  0
    7.1560   -2.1658   -3.1452 C   0  0  0  0  0  0  0  0  0  0  0  0
    8.6092   -2.6497   -3.9930 Cl  0  0  0  0  0  0  0  0  0  0  0  0
    7.2450   -1.6742   -1.8588 C   0  0  0  0  0  0  0  0  0  0  0  0
    6.0567   -1.3007   -1.2360 C   0  0  0  0  0  0  0  0  0  0  0  0
    1.4505    1.6396    0.8461 S   0  0  0  0  0  0  0  0  0  0  0  0
   -0.2232    1.1333    1.0267 C   0  0  0  0  0  0  0  0  0  0  0  0
   -1.2786    1.9449    1.6051 C   0  0  0  0  0  0  0  0  0  0  0  0
   -2.3613    1.5657    2.2288 C   0  0  0  0  0  0  0  0  0  0  0  0
   -3.3733    2.3501    2.7844 C   0  0  0  0  0  0  0  0  0  0  0  0
   -3.1742    3.7392    2.6442 C   0  0  0  0  0  0  0  0  0  0  0  0
   -4.1792    4.5921    3.1765 O   0  0  0  0  0  0  0  0  0  0  0  0
   -3.8998    6.0056    3.0272 C   0  0  0  0  0  0  0  0  0  0  0  0
   -2.0637    4.1740    2.0120 C   0  0  0  0  0  0  0  0  0  0  0  0
   -1.0929    3.3560    1.4732 C   0  0  0  0  0  0  0  0  0  0  0  0
   -1.8977   -1.7401    1.1983 C   0  0  0  0  0  0  0  0  0  0  0  0
   -2.9599   -2.6194    1.0520 C   0  0  0  0  0  0  0  0  0  0  0  0
   -5.5533   -5.3072    0.0556 H   0  0  0  0  0  0  0  0  0  0  0  0
   -4.4190   -4.6984    1.2417 H   0  0  0  0  0  0  0  0  0  0  0  0
   -5.9566   -3.8286    1.0495 H   0  0  0  0  0  0  0  0  0  0  0  0
   -3.4090   -2.0421   -2.2537 H   0  0  0  0  0  0  0  0  0  0  0  0
   -1.5233   -0.5003   -1.8625 H   0  0  0  0  0  0  0  0  0  0  0  0
    2.7330   -1.7819   -1.2999 H   0  0  0  0  0  0  0  0  0  0  0  0
    3.8277   -1.9680   -3.6028 H   0  0  0  0  0  0  0  0  0  0  0  0
    5.9314   -2.6742   -4.7601 H   0  0  0  0  0  0  0  0  0  0  0  0
    8.1984   -1.5925   -1.3932 H   0  0  0  0  0  0  0  0  0  0  0  0
    6.1416   -0.9243   -0.2268 H   0  0  0  0  0  0  0  0  0  0  0  0
   -2.5577    0.4880    2.3959 H   0  0  0  0  0  0  0  0  0  0  0  0
   -4.2163    1.9348    3.2670 H   0  0  0  0  0  0  0  0  0  0  0  0
   -3.7309    6.1816    1.9621 H   0  0  0  0  0  0  0  0  0  0  0  0
   -4.8330    6.5046    3.3952 H   0  0  0  0  0  0  0  0  0  0  0  0
   -3.0859    6.2615    3.7011 H   0  0  0  0  0  0  0  0  0  0  0  0
   -1.9260    5.2825    1.9295 H   0  0  0  0  0  0  0  0  0  0  0  0
   -0.2306    3.7052    0.9779 H   0  0  0  0  0  0  0  0  0  0  0  0
   -1.4587   -1.6616    2.2160 H   0  0  0  0  0  0  0  0  0  0  0  0
   -3.3318   -3.1741    1.8751 H   0  0  0  0  0  0  0  0  0  0  0  0
  1  2  1  0
  2  3  1  0
  3  4  2  0
  4  5  1  0
  5  6  2  0
  6  7  1  0
  7  8  1  0
  8  9  2  0
  9 10  1  0
 10 11  1  0
 11 12  3  0
 10 13  2  0
 13 14  1  0
 14 15  2  0
 15 16  1  0
 16 17  2  0
 17 18  1  0
 17 19  1  0
 19 20  2  0
  9 21  1  0
 21 22  1  0
 22 23  1  0
 23 24  2  0
 24 25  1  0
 25 26  2  0
 26 27  1  0
 27 28  1  0
 26 29  1  0
 29 30  2  0
  6 31  1  0
 31 32  2  0
 32  3  1  0
 22  7  2  0
 30 23  1  0
 20 14  1  0
  1 33  1  0
  1 34  1  0
  1 35  1  0
  4 36  1  0
  5 37  1  0
 13 38  1  0
 15 39  1  0
 16 40  1  0
 19 41  1  0
 20 42  1  0
 24 43  1  0
 25 44  1  0
 28 45  1  0
 28 46  1  0
 28 47  1  0
 29 48  1  0
 30 49  1  0
 31 50  1  0
 32 51  1  0
M  END
