
     RDKit          3D

 91 93  0  0  0  0  0  0  0  0999 V2000
   10.9347    2.8913   -1.7854 C   0  0  0  0  0  0  0  0  0  0  0  0
    9.9503    1.9517   -1.1251 C   0  0  0  0  0  0  0  0  0  0  0  0
   10.2847    1.8290    0.3290 C   0  0  0  0  0  0  0  0  0  0  0  0
    9.3517    0.9121    1.0744 C   0  0  0  0  0  0  0  0  0  0  0  0
    9.3760   -0.5021    0.5111 C   0  0  0  0  0  0  0  0  0  0  0  0
    8.4300   -1.3956    1.2838 C   0  0  0  0  0  0  0  0  0  0  0  0
    7.0142   -0.9154    1.2315 C   0  0  0  0  0  0  0  0  0  0  0  0
    6.5240   -0.8646   -0.1974 C   0  0  0  0  0  0  0  0  0  0  0  0
    5.1037   -0.3856   -0.2981 C   0  0  0  0  0  0  0  0  0  0  0  0
    4.1155   -1.2372    0.4277 C   0  0  0  0  0  0  0  0  0  0  0  0
    4.1074   -2.6572   -0.1071 C   0  0  0  0  0  0  0  0  0  0  0  0
    3.1145   -3.4699    0.6491 C   0  0  0  0  0  0  0  0  0  0  0  0
    1.6816   -2.9214    0.5451 C   0  0  0  0  0  0  0  0  0  0  0  0
    1.2239   -2.9016   -0.8571 C   0  0  0  0  0  0  0  0  0  0  0  0
   -0.1197   -2.4078   -1.1301 C   0  0  0  0  0  0  0  0  0  0  0  0
   -0.5020   -1.0045   -0.9467 C   0  0  0  0  0  0  0  0  0  0  0  0
   -0.3177   -0.3892    0.3937 C   0  0  0  0  0  0  0  0  0  0  0  0
   -0.8483    1.0427    0.4028 C   0  0  0  0  0  0  0  0  0  0  0  0
   -2.2437    1.1578    0.0727 N   0  0  0  0  0  0  0  0  0  0  0  0
   -2.7327    1.4034   -1.2400 C   0  0  0  0  0  0  0  0  0  0  0  0
   -1.9229    1.5623   -2.2167 O   0  0  0  0  0  0  0  0  0  0  0  0
   -4.1658    1.4864   -1.5202 C   0  0  0  0  0  0  0  0  0  0  0  0
   -4.6241    1.7289   -2.8148 C   0  0  0  0  0  0  0  0  0  0  0  0
   -5.9566    1.8131   -3.1051 C   0  0  0  0  0  0  0  0  0  0  0  0
   -6.9059    1.6587   -2.1119 C   0  0  0  0  0  0  0  0  0  0  0  0
   -6.4745    1.4182   -0.8240 C   0  0  0  0  0  0  0  0  0  0  0  0
   -7.4691    1.2683    0.1635 C   0  0  0  0  0  0  0  0  0  0  0  0
   -8.7720    1.3658   -0.1901 O   0  0  0  0  0  0  0  0  0  0  0  0
   -9.9536    1.2600    0.4819 C   0  0  0  0  0  0  0  0  0  0  0  0
  -10.1831   -0.0948    1.0476 C   0  0  0  0  0  0  0  0  0  0  0  0
  -11.4393   -0.2077    1.7663 N   0  0  0  0  0  0  0  0  0  0  0  0
  -11.4230    0.5775    2.9857 C   0  0  0  0  0  0  0  0  0  0  0  0
  -12.6026   -0.0251    0.9622 C   0  0  0  0  0  0  0  0  0  0  0  0
   -7.0058    1.0319    1.4406 C   0  0  0  0  0  0  0  0  0  0  0  0
   -5.6590    0.9489    1.7168 C   0  0  0  0  0  0  0  0  0  0  0  0
   -4.6781    1.0950    0.7490 C   0  0  0  0  0  0  0  0  0  0  0  0
   -5.1321    1.3348   -0.5404 C   0  0  0  0  0  0  0  0  0  0  0  0
   -3.2634    1.0029    1.0819 C   0  0  0  0  0  0  0  0  0  0  0  0
   -2.8781    0.7871    2.2500 O   0  0  0  0  0  0  0  0  0  0  0  0
   10.3578    3.5780   -2.4510 H   0  0  0  0  0  0  0  0  0  0  0  0
   11.7101    2.3635   -2.3638 H   0  0  0  0  0  0  0  0  0  0  0  0
   11.4510    3.5389   -1.0517 H   0  0  0  0  0  0  0  0  0  0  0  0
    8.9261    2.3256   -1.2408 H   0  0  0  0  0  0  0  0  0  0  0  0
   10.0093    0.9800   -1.6578 H   0  0  0  0  0  0  0  0  0  0  0  0
   11.3526    1.5498    0.4785 H   0  0  0  0  0  0  0  0  0  0  0  0
   10.1361    2.8483    0.7860 H   0  0  0  0  0  0  0  0  0  0  0  0
    8.3380    1.3564    1.0313 H   0  0  0  0  0  0  0  0  0  0  0  0
    9.6436    0.9202    2.1426 H   0  0  0  0  0  0  0  0  0  0  0  0
   10.4038   -0.8884    0.6842 H   0  0  0  0  0  0  0  0  0  0  0  0
    9.1967   -0.5194   -0.5656 H   0  0  0  0  0  0  0  0  0  0  0  0
    8.8156   -1.4470    2.3139 H   0  0  0  0  0  0  0  0  0  0  0  0
    8.4672   -2.4141    0.8492 H   0  0  0  0  0  0  0  0  0  0  0  0
    6.4096   -1.6395    1.8422 H   0  0  0  0  0  0  0  0  0  0  0  0
    6.9105    0.0680    1.6901 H   0  0  0  0  0  0  0  0  0  0  0  0
    6.6873   -1.8479   -0.6549 H   0  0  0  0  0  0  0  0  0  0  0  0
    7.1577   -0.1269   -0.7310 H   0  0  0  0  0  0  0  0  0  0  0  0
    5.0085    0.6668   -0.0268 H   0  0  0  0  0  0  0  0  0  0  0  0
    4.8364   -0.4443   -1.3946 H   0  0  0  0  0  0  0  0  0  0  0  0
    3.1073   -0.8282    0.1802 H   0  0  0  0  0  0  0  0  0  0  0  0
    4.2028   -1.1874    1.5208 H   0  0  0  0  0  0  0  0  0  0  0  0
    3.9067   -2.5963   -1.1953 H   0  0  0  0  0  0  0  0  0  0  0  0
    5.1052   -3.1341   -0.0194 H   0  0  0  0  0  0  0  0  0  0  0  0
    3.0734   -4.5072    0.2399 H   0  0  0  0  0  0  0  0  0  0  0  0
    3.3784   -3.4911    1.7143 H   0  0  0  0  0  0  0  0  0  0  0  0
    1.5246   -2.0913    1.1992 H   0  0  0  0  0  0  0  0  0  0  0  0
    1.0785   -3.7761    1.0407 H   0  0  0  0  0  0  0  0  0  0  0  0
    1.2706   -3.9763   -1.2192 H   0  0  0  0  0  0  0  0  0  0  0  0
    1.9336   -2.3389   -1.5363 H   0  0  0  0  0  0  0  0  0  0  0  0
   -0.9107   -3.0682   -0.6359 H   0  0  0  0  0  0  0  0  0  0  0  0
   -0.3218   -2.6379   -2.2445 H   0  0  0  0  0  0  0  0  0  0  0  0
   -1.6160   -0.8689   -1.2398 H   0  0  0  0  0  0  0  0  0  0  0  0
   -0.0011   -0.4068   -1.7593 H   0  0  0  0  0  0  0  0  0  0  0  0
   -0.5964   -0.9817    1.2507 H   0  0  0  0  0  0  0  0  0  0  0  0
    0.8260   -0.2339    0.4775 H   0  0  0  0  0  0  0  0  0  0  0  0
   -0.6022    1.4439    1.4093 H   0  0  0  0  0  0  0  0  0  0  0  0
   -0.2022    1.6253   -0.3066 H   0  0  0  0  0  0  0  0  0  0  0  0
   -3.8435    1.8469   -3.5750 H   0  0  0  0  0  0  0  0  0  0  0  0
   -6.2767    2.0006   -4.1191 H   0  0  0  0  0  0  0  0  0  0  0  0
   -7.9645    1.7203   -2.3064 H   0  0  0  0  0  0  0  0  0  0  0  0
  -10.7848    1.4283   -0.2755 H   0  0  0  0  0  0  0  0  0  0  0  0
  -10.1400    2.0777    1.2252 H   0  0  0  0  0  0  0  0  0  0  0  0
   -9.4121   -0.4790    1.7117 H   0  0  0  0  0  0  0  0  0  0  0  0
  -10.3095   -0.7889    0.1574 H   0  0  0  0  0  0  0  0  0  0  0  0
  -10.4245    1.0503    3.1031 H   0  0  0  0  0  0  0  0  0  0  0  0
  -11.6992   -0.0368    3.8546 H   0  0  0  0  0  0  0  0  0  0  0  0
  -12.1690    1.3919    2.8752 H   0  0  0  0  0  0  0  0  0  0  0  0
  -13.2749   -0.9291    1.0455 H   0  0  0  0  0  0  0  0  0  0  0  0
  -12.4295    0.2584   -0.0755 H   0  0  0  0  0  0  0  0  0  0  0  0
  -13.1965    0.8186    1.4217 H   0  0  0  0  0  0  0  0  0  0  0  0
   -7.7118    0.9225    2.2709 H   0  0  0  0  0  0  0  0  0  0  0  0
   -5.2774    0.7573    2.7274 H   0  0  0  0  0  0  0  0  0  0  0  0
  1  2  1  0
  2  3  1  0
  3  4  1  0
  4  5  1  0
  5  6  1  0
  6  7  1  0
  7  8  1  0
  8  9  1  0
  9 10  1  0
 10 11  1  0
 11 12  1  0
 12 13  1  0
 13 14  1  0
 14 15  1  0
 15 16  1  0
 16 17  1  0
 17 18  1  0
 18 19  1  0
 19 20  1  0
 20 21  2  0
 20 22  1  0
 22 23  1  0
 23 24  2  0
 24 25  1  0
 25 26  2  0
 26 27  1  0
 27 28  1  0
 28 29  1  0
 29 30  1  0
 30 31  1  0
 31 32  1  0
 31 33  1  0
 27 34  2  0
 34 35  1  0
 35 36  2  0
 36 37  1  0
 36 38  1  0
 38 39  2  0
 38 19  1  0
 37 22  2  0
 37 26  1  0
  1 40  1  0
  1 41  1  0
  1 42  1  0
  2 43  1  0
  2 44  1  0
  3 45  1  0
  3 46  1  0
  4 47  1  0
  4 48  1  0
  5 49  1  0
  5 50  1  0
  6 51  1  0
  6 52  1  0
  7 53  1  0
  7 54  1  0
  8 55  1  0
  8 56  1  0
  9 57  1  0
  9 58  1  0
 10 59  1  0
 10 60  1  0
 11 61  1  0
 11 62  1  0
 12 63  1  0
 12 64  1  0
 13 65  1  0
 13 66  1  0
 14 67  1  0
 14 68  1  0
 15 69  1  0
 15 70  1  0
 16 71  1  0
 16 72  1  0
 17 73  1  0
 17 74  1  0
 18 75  1  0
 18 76  1  0
 23 77  1  0
 24 78  1  0
 25 79  1  0
 29 80  1  0
 29 81  1  0
 30 82  1  0
 30 83  1  0
 32 84  1  0
 32 85  1  0
 32 86  1  0
 33 87  1  0
 33 88  1  0
 33 89  1  0
 34 90  1  0
 35 91  1  0
M  END
