
     RDKit          3D

 44 46  0  0  0  0  0  0  0  0999 V2000
    4.9635   -2.7557   -0.0480 C   0  0  0  0  0  0  0  0  0  0  0  0
    3.8255   -2.1313    0.7211 C   0  0  0  0  0  0  0  0  0  0  0  0
    3.0774   -1.2369   -0.0415 O   0  0  0  0  0  0  0  0  0  0  0  0
    1.9915   -0.5882    0.5284 C   0  0  0  0  0  0  0  0  0  0  0  0
    1.7220   -0.8286    1.7053 O   0  0  0  0  0  0  0  0  0  0  0  0
    1.1876    0.3711   -0.2866 C   0  0  0  0  0  0  0  0  0  0  0  0
    1.9698    1.6523   -0.2543 C   0  0  0  0  0  0  0  0  0  0  0  0
    3.1816    1.9487   -0.8038 C   0  0  0  0  0  0  0  0  0  0  0  0
    3.8117    3.1532   -0.6027 C   0  0  0  0  0  0  0  0  0  0  0  0
    5.3851    3.4883   -1.3424 Cl  0  0  0  0  0  0  0  0  0  0  0  0
    3.1828    4.0750    0.1831 C   0  0  0  0  0  0  0  0  0  0  0  0
    1.9579    3.8218    0.7596 C   0  0  0  0  0  0  0  0  0  0  0  0
    1.3378    2.5848    0.5336 C   0  0  0  0  0  0  0  0  0  0  0  0
    0.0572    2.0105    0.8964 C   0  0  0  0  0  0  0  0  0  0  0  0
   -0.7958    2.5770    1.6232 O   0  0  0  0  0  0  0  0  0  0  0  0
   -0.0670    0.7047    0.2921 N   0  0  0  0  0  0  0  0  0  0  0  0
   -1.3033   -0.0245    0.2769 C   0  0  0  0  0  0  0  0  0  0  0  0
   -1.5125   -1.1680    0.9789 C   0  0  0  0  0  0  0  0  0  0  0  0
   -2.7346   -1.8478    0.8995 C   0  0  0  0  0  0  0  0  0  0  0  0
   -3.7534   -1.3681    0.1053 C   0  0  0  0  0  0  0  0  0  0  0  0
   -4.9461   -2.0623    0.0449 O   0  0  0  0  0  0  0  0  0  0  0  0
   -5.2232   -3.2219    0.7493 C   0  0  0  0  0  0  0  0  0  0  0  0
   -3.5695   -0.1951   -0.6271 C   0  0  0  0  0  0  0  0  0  0  0  0
   -4.6338    0.2260   -1.4019 O   0  0  0  0  0  0  0  0  0  0  0  0
   -4.5511    1.3923   -2.1740 C   0  0  0  0  0  0  0  0  0  0  0  0
   -2.3658    0.4263   -0.5156 C   0  0  0  0  0  0  0  0  0  0  0  0
    5.7286   -3.0760    0.6960 H   0  0  0  0  0  0  0  0  0  0  0  0
    5.3976   -2.0012   -0.7252 H   0  0  0  0  0  0  0  0  0  0  0  0
    4.5790   -3.6432   -0.6317 H   0  0  0  0  0  0  0  0  0  0  0  0
    4.2045   -1.6274    1.6315 H   0  0  0  0  0  0  0  0  0  0  0  0
    3.1778   -2.9684    1.0594 H   0  0  0  0  0  0  0  0  0  0  0  0
    1.1495   -0.0208   -1.3153 H   0  0  0  0  0  0  0  0  0  0  0  0
    3.7151    1.2343   -1.4423 H   0  0  0  0  0  0  0  0  0  0  0  0
    3.6616    5.0290    0.3594 H   0  0  0  0  0  0  0  0  0  0  0  0
    1.4238    4.5035    1.3805 H   0  0  0  0  0  0  0  0  0  0  0  0
   -0.7606   -1.5946    1.6238 H   0  0  0  0  0  0  0  0  0  0  0  0
   -2.8439   -2.7470    1.4752 H   0  0  0  0  0  0  0  0  0  0  0  0
   -4.6612   -4.0717    0.2674 H   0  0  0  0  0  0  0  0  0  0  0  0
   -6.3107   -3.4762    0.6989 H   0  0  0  0  0  0  0  0  0  0  0  0
   -4.8584   -3.1373    1.7768 H   0  0  0  0  0  0  0  0  0  0  0  0
   -3.5340    1.6131   -2.5556 H   0  0  0  0  0  0  0  0  0  0  0  0
   -4.8818    2.3228   -1.6269 H   0  0  0  0  0  0  0  0  0  0  0  0
   -5.1926    1.3008   -3.0907 H   0  0  0  0  0  0  0  0  0  0  0  0
   -2.1897    1.3566   -1.0739 H   0  0  0  0  0  0  0  0  0  0  0  0
  1  2  1  0
  2  3  1  0
  3  4  1  0
  4  5  2  0
  4  6  1  0
  6  7  1  0
  7  8  2  0
  8  9  1  0
  9 10  1  0
  9 11  2  0
 11 12  1  0
 12 13  2  0
 13 14  1  0
 14 15  2  0
 14 16  1  0
 16 17  1  0
 17 18  2  0
 18 19  1  0
 19 20  2  0
 20 21  1  0
 21 22  1  0
 20 23  1  0
 23 24  1  0
 24 25  1  0
 23 26  2  0
 16  6  1  0
 26 17  1  0
 13  7  1  0
  1 27  1  0
  1 28  1  0
  1 29  1  0
  2 30  1  0
  2 31  1  0
  6 32  1  0
  8 33  1  0
 11 34  1  0
 12 35  1  0
 18 36  1  0
 19 37  1  0
 22 38  1  0
 22 39  1  0
 22 40  1  0
 25 41  1  0
 25 42  1  0
 25 43  1  0
 26 44  1  0
M  END
