
     RDKit          3D

101111  0  0  0  0  0  0  0  0999 V2000
   -5.4191    1.7509    1.9313 C   0  0  0  0  0  0  0  0  0  0  0  0
   -6.7762    1.0895    2.1448 C   0  0  0  0  0  0  0  0  0  0  0  0
   -7.8728    1.9951    1.6779 C   0  0  0  0  0  0  0  0  0  0  0  0
   -7.7546    2.2926    0.2226 C   0  0  0  0  0  0  0  0  0  0  0  0
   -7.8765    0.9944   -0.5661 C   0  0  0  0  0  0  0  0  0  0  0  0
   -7.7782    1.2987   -2.0439 C   0  0  0  0  0  0  0  0  0  0  0  0
   -7.9528    0.0170   -2.8446 C   0  0  0  0  0  0  0  0  0  0  0  0
   -9.1333   -0.2337   -3.4667 C   0  0  0  0  0  0  0  0  0  0  0  0
   -9.2816   -1.4081   -4.1326 C   0  0  0  0  0  0  0  0  0  0  0  0
   -7.7928   -2.1597   -3.8976 S   0  0  0  0  0  0  0  0  0  0  0  0
   -6.9929   -0.9294   -2.9326 C   0  0  0  0  0  0  0  0  0  0  0  0
   -5.6221   -1.0964   -2.4107 C   0  0  0  0  0  0  0  0  0  0  0  0
   -5.0663   -2.3940   -2.5020 C   0  0  0  0  0  0  0  0  0  0  0  0
   -3.7843   -2.6254   -2.1038 C   0  0  0  0  0  0  0  0  0  0  0  0
   -3.0186   -1.6065   -1.6121 C   0  0  0  0  0  0  0  0  0  0  0  0
   -3.5279   -0.2926   -1.5005 C   0  0  0  0  0  0  0  0  0  0  0  0
   -4.8257   -0.1123   -1.9140 C   0  0  0  0  0  0  0  0  0  0  0  0
   -2.4219    0.5018   -0.9719 C   0  0  0  0  0  0  0  0  0  0  0  0
   -1.4149   -0.2576   -0.7842 N   0  0  0  0  0  4  0  0  0  0  0  0
   -1.6313   -1.5976   -1.1502 C   0  0  0  0  0  0  0  0  0  0  0  0
   -0.5977   -2.4569   -1.1771 C   0  0  0  0  0  0  0  0  0  0  0  0
    0.6817   -2.0355   -0.5620 C   0  0  0  0  0  0  0  0  0  0  0  0
    1.9093   -2.6284   -0.3389 C   0  0  0  0  0  0  0  0  0  0  0  0
    2.3713   -3.8774   -0.6872 C   0  0  0  0  0  0  0  0  0  0  0  0
    3.6391   -4.2689   -0.3292 C   0  0  0  0  0  0  0  0  0  0  0  0
    4.4872   -3.4076    0.3947 C   0  0  0  0  0  0  0  0  0  0  0  0
    5.7871   -3.9459    0.7959 C   0  0  0  0  0  0  0  0  0  0  0  0
    6.1781   -5.6584    0.7286 S   0  0  0  0  0  0  0  0  0  0  0  0
    7.7771   -5.6046    1.2501 C   0  0  0  0  0  0  0  0  0  0  0  0
    7.9813   -4.2750    1.4648 C   0  0  0  0  0  0  0  0  0  0  0  0
    6.9635   -3.4189    1.2326 C   0  0  0  0  0  0  0  0  0  0  0  0
    7.1863   -1.9004    1.4017 C   0  0  0  0  0  0  0  0  0  0  0  0
    7.3249   -1.3845    0.0335 C   0  0  0  0  0  0  0  0  0  0  0  0
    7.4813    0.0185   -0.2980 C   0  0  0  0  0  0  0  0  0  0  0  0
    8.5797    0.8619    0.1591 C   0  0  0  0  0  0  0  0  0  0  0  0
    8.6508    1.1209    1.6238 C   0  0  0  0  0  0  0  0  0  0  0  0
    9.8781    2.0209    1.9096 C   0  0  0  0  0  0  0  0  0  0  0  0
    4.0054   -2.1738    0.7263 C   0  0  0  0  0  0  0  0  0  0  0  0
    2.7392   -1.7552    0.3822 C   0  0  0  0  0  0  0  0  0  0  0  0
    1.9555   -0.6315    0.5835 C   0  0  0  0  0  0  0  0  0  0  0  0
    0.7815   -0.8491    0.0025 N   0  0  0  0  0  0  0  0  0  0  0  0
   -0.2056    0.2714   -0.0798 B   0  0  0  0  0  4  0  0  0  0  0  0
    0.1921    1.5164   -0.8338 O   0  0  0  0  0  0  0  0  0  0  0  0
   -0.8702    2.4366   -0.9791 C   0  0  0  0  0  0  0  0  0  0  0  0
   -0.6265    3.7969   -1.0467 C   0  0  0  0  0  0  0  0  0  0  0  0
   -1.6778    4.6765   -1.1908 C   0  0  0  0  0  0  0  0  0  0  0  0
   -2.9528    4.1960   -1.2651 C   0  0  0  0  0  0  0  0  0  0  0  0
   -3.2432    2.8190   -1.2004 C   0  0  0  0  0  0  0  0  0  0  0  0
   -2.1829    1.9702   -1.0594 C   0  0  0  0  0  0  0  0  0  0  0  0
   -0.3637    0.8108    1.3171 O   0  0  0  0  0  0  0  0  0  0  0  0
    0.8553    1.1532    1.9315 C   0  0  0  0  0  0  0  0  0  0  0  0
    0.9234    2.1757    2.8683 C   0  0  0  0  0  0  0  0  0  0  0  0
    2.1326    2.4691    3.4364 C   0  0  0  0  0  0  0  0  0  0  0  0
    3.2703    1.7830    3.1057 C   0  0  0  0  0  0  0  0  0  0  0  0
    3.2190    0.7468    2.1612 C   0  0  0  0  0  0  0  0  0  0  0  0
    2.0161    0.4522    1.5959 C   0  0  0  0  0  0  0  0  0  0  0  0
   -5.3797    2.6646    2.5514 H   0  0  0  0  0  0  0  0  0  0  0  0
   -5.2244    1.9386    0.8785 H   0  0  0  0  0  0  0  0  0  0  0  0
   -4.6517    1.0676    2.3441 H   0  0  0  0  0  0  0  0  0  0  0  0
   -6.8583    0.9760    3.2724 H   0  0  0  0  0  0  0  0  0  0  0  0
   -6.7575    0.1011    1.6740 H   0  0  0  0  0  0  0  0  0  0  0  0
   -8.8739    1.5329    1.8999 H   0  0  0  0  0  0  0  0  0  0  0  0
   -7.8499    2.9590    2.2666 H   0  0  0  0  0  0  0  0  0  0  0  0
   -6.8071    2.8085    0.0041 H   0  0  0  0  0  0  0  0  0  0  0  0
   -8.5830    2.9593   -0.1448 H   0  0  0  0  0  0  0  0  0  0  0  0
   -7.1023    0.2865   -0.2922 H   0  0  0  0  0  0  0  0  0  0  0  0
   -8.8998    0.5498   -0.3672 H   0  0  0  0  0  0  0  0  0  0  0  0
   -6.9283    1.8858   -2.2905 H   0  0  0  0  0  0  0  0  0  0  0  0
   -8.6614    1.9655   -2.2957 H   0  0  0  0  0  0  0  0  0  0  0  0
  -10.0051    0.4722   -3.4703 H   0  0  0  0  0  0  0  0  0  0  0  0
  -10.1856   -1.7505   -4.6858 H   0  0  0  0  0  0  0  0  0  0  0  0
   -5.6829   -3.2129   -2.8943 H   0  0  0  0  0  0  0  0  0  0  0  0
   -3.3559   -3.6253   -2.1735 H   0  0  0  0  0  0  0  0  0  0  0  0
   -5.2389    0.8625   -1.8421 H   0  0  0  0  0  0  0  0  0  0  0  0
   -0.6981   -3.4138   -1.6286 H   0  0  0  0  0  0  0  0  0  0  0  0
    1.7255   -4.5418   -1.2448 H   0  0  0  0  0  0  0  0  0  0  0  0
    4.0230   -5.2339   -0.5885 H   0  0  0  0  0  0  0  0  0  0  0  0
    8.5165   -6.4230    1.3961 H   0  0  0  0  0  0  0  0  0  0  0  0
    9.0012   -3.9688    1.8259 H   0  0  0  0  0  0  0  0  0  0  0  0
    6.4609   -1.4620    2.0592 H   0  0  0  0  0  0  0  0  0  0  0  0
    8.1535   -1.8177    1.9916 H   0  0  0  0  0  0  0  0  0  0  0  0
    6.4574   -1.7837   -0.5900 H   0  0  0  0  0  0  0  0  0  0  0  0
    8.1955   -1.9580   -0.4932 H   0  0  0  0  0  0  0  0  0  0  0  0
    6.5078    0.5835   -0.0124 H   0  0  0  0  0  0  0  0  0  0  0  0
    7.3977    0.1068   -1.4464 H   0  0  0  0  0  0  0  0  0  0  0  0
    8.4124    1.8964   -0.3077 H   0  0  0  0  0  0  0  0  0  0  0  0
    9.5823    0.5913   -0.2735 H   0  0  0  0  0  0  0  0  0  0  0  0
    7.7879    1.8116    1.9272 H   0  0  0  0  0  0  0  0  0  0  0  0
    8.6003    0.3036    2.3134 H   0  0  0  0  0  0  0  0  0  0  0  0
   10.7036    1.3202    2.1320 H   0  0  0  0  0  0  0  0  0  0  0  0
    9.6857    2.6884    2.7649 H   0  0  0  0  0  0  0  0  0  0  0  0
   10.1204    2.5556    0.9899 H   0  0  0  0  0  0  0  0  0  0  0  0
    4.6330   -1.5119    1.2785 H   0  0  0  0  0  0  0  0  0  0  0  0
    0.4050    4.1450   -0.9849 H   0  0  0  0  0  0  0  0  0  0  0  0
   -1.4908    5.7316   -1.2448 H   0  0  0  0  0  0  0  0  0  0  0  0
   -3.7662    4.8955   -1.3758 H   0  0  0  0  0  0  0  0  0  0  0  0
   -4.2611    2.5013   -1.2429 H   0  0  0  0  0  0  0  0  0  0  0  0
    0.0502    2.7283    3.1457 H   0  0  0  0  0  0  0  0  0  0  0  0
    2.1953    3.2644    4.1696 H   0  0  0  0  0  0  0  0  0  0  0  0
    4.2091    2.0427    3.5742 H   0  0  0  0  0  0  0  0  0  0  0  0
    4.1345    0.2563    1.9166 H   0  0  0  0  0  0  0  0  0  0  0  0
  1  2  1  0
  2  3  1  0
  3  4  1  0
  4  5  1  0
  5  6  1  0
  6  7  1  0
  7  8  1  0
  8  9  2  0
  9 10  1  0
 10 11  1  0
 11 12  1  0
 12 13  2  0
 13 14  1  0
 14 15  2  0
 15 16  1  0
 16 17  2  0
 16 18  1  0
 18 19  2  0
 19 20  1  0
 20 21  2  0
 21 22  1  0
 22 23  2  0
 23 24  1  0
 24 25  2  0
 25 26  1  0
 26 27  1  0
 27 28  1  0
 28 29  1  0
 29 30  2  0
 30 31  1  0
 31 32  1  0
 32 33  1  0
 33 34  1  0
 34 35  1  0
 35 36  1  0
 36 37  1  0
 26 38  2  0
 38 39  1  0
 39 40  2  0
 40 41  1  0
 41 42  1  0
 42 43  1  0
 43 44  1  0
 44 45  2  0
 45 46  1  0
 46 47  2  0
 47 48  1  0
 48 49  2  0
 42 50  1  0
 50 51  1  0
 51 52  2  0
 52 53  1  0
 53 54  2  0
 54 55  1  0
 55 56  2  0
 11  7  2  0
 17 12  1  0
 49 18  1  0
 56 51  1  0
 20 15  1  0
 41 22  1  0
 49 44  1  0
 42 19  1  0
 39 23  1  0
 56 40  1  0
 31 27  2  0
  1 57  1  0
  1 58  1  0
  1 59  1  0
  2 60  1  0
  2 61  1  0
  3 62  1  0
  3 63  1  0
  4 64  1  0
  4 65  1  0
  5 66  1  0
  5 67  1  0
  6 68  1  0
  6 69  1  0
  8 70  1  0
  9 71  1  0
 13 72  1  0
 14 73  1  0
 17 74  1  0
 21 75  1  0
 24 76  1  0
 25 77  1  0
 29 78  1  0
 30 79  1  0
 32 80  1  0
 32 81  1  0
 33 82  1  0
 33 83  1  0
 34 84  1  0
 34 85  1  0
 35 86  1  0
 35 87  1  0
 36 88  1  0
 36 89  1  0
 37 90  1  0
 37 91  1  0
 37 92  1  0
 38 93  1  0
 45 94  1  0
 46 95  1  0
 47 96  1  0
 48 97  1  0
 52 98  1  0
 53 99  1  0
 54100  1  0
 55101  1  0
M  CHG  2  19   1  42  -1
M  END
