
     RDKit          3D

 85 92  0  0  0  0  0  0  0  0999 V2000
    2.9831    8.3213    2.3654 C   0  0  0  0  0  0  0  0  0  0  0  0
    3.5757    6.9546    2.0435 C   0  0  0  0  0  0  0  0  0  0  0  0
    3.2180    6.4983    0.7256 N   0  0  0  0  0  0  0  0  0  0  0  0
    3.7372    7.1732   -0.4324 C   0  0  0  0  0  0  0  0  0  0  0  0
    3.2293    6.4881   -1.6839 C   0  0  0  0  0  0  0  0  0  0  0  0
    2.3623    5.3915    0.5768 C   0  0  0  0  0  0  0  0  0  0  0  0
    2.8156    4.1024    0.4562 C   0  0  0  0  0  0  0  0  0  0  0  0
    1.9542    3.0420    0.3165 C   0  0  0  0  0  0  0  0  0  0  0  0
    0.6025    3.2564    0.2953 C   0  0  0  0  0  0  0  0  0  0  0  0
   -0.3270    2.1495    0.1562 C   0  0  0  0  0  0  0  0  0  0  0  0
   -1.6670    2.3731    0.1323 N   0  0  0  0  0  0  0  0  0  0  0  0
   -2.5746    1.4057    0.0105 C   0  0  0  0  0  0  0  0  0  0  0  0
   -3.9433    1.6009   -0.0199 O   0  0  0  0  0  0  0  0  0  0  0  0
   -4.8079    0.5350   -0.1242 C   0  0  0  0  0  0  0  0  0  0  0  0
   -5.3368   -0.0052    1.0197 C   0  0  0  0  0  0  0  0  0  0  0  0
   -6.2039   -1.0737    0.9377 C   0  0  0  0  0  0  0  0  0  0  0  0
   -6.5720   -1.6391   -0.2851 C   0  0  0  0  0  0  0  0  0  0  0  0
   -7.4997   -2.7613   -0.2879 C   0  0  0  0  0  0  0  0  0  0  0  0
   -8.0993   -3.3373    0.7667 N   0  0  0  0  0  0  0  0  0  0  0  0
   -8.9107   -4.3572    0.3734 C   0  0  0  0  0  0  0  0  0  0  0  0
   -9.7217   -5.2343    1.0389 C   0  0  0  0  0  0  0  0  0  0  0  0
  -10.4527   -6.1896    0.3901 C   0  0  0  0  0  0  0  0  0  0  0  0
  -11.2973   -7.1095    1.0590 N   0  0  0  0  0  4  0  0  0  0  0  0
  -11.3911   -7.0694    2.2906 O   0  0  0  0  0  0  0  0  0  0  0  0
  -12.0047   -8.0375    0.3562 O   0  0  0  0  0  1  0  0  0  0  0  0
  -10.3613   -6.2651   -1.0068 C   0  0  0  0  0  0  0  0  0  0  0  0
   -9.5371   -5.3703   -1.6579 C   0  0  0  0  0  0  0  0  0  0  0  0
   -8.7957   -4.4013   -1.0047 C   0  0  0  0  0  0  0  0  0  0  0  0
   -7.9434   -3.4334   -1.3713 N   0  0  0  0  0  0  0  0  0  0  0  0
   -6.0237   -1.0743   -1.4073 C   0  0  0  0  0  0  0  0  0  0  0  0
   -5.1439    0.0090   -1.3374 C   0  0  0  0  0  0  0  0  0  0  0  0
   -2.0928    0.1278   -0.0939 N   0  0  0  0  0  0  0  0  0  0  0  0
   -0.7837   -0.1293   -0.0746 C   0  0  0  0  0  0  0  0  0  0  0  0
   -0.4088   -1.4668   -0.1908 O   0  0  0  0  0  0  0  0  0  0  0  0
    0.9495   -1.7294   -0.1702 C   0  0  0  0  0  0  0  0  0  0  0  0
    1.6585   -1.6960   -1.3455 C   0  0  0  0  0  0  0  0  0  0  0  0
    3.0171   -1.9518   -1.3696 C   0  0  0  0  0  0  0  0  0  0  0  0
    3.7058   -2.2507   -0.2086 C   0  0  0  0  0  0  0  0  0  0  0  0
    5.1371   -2.5094   -0.2607 C   0  0  0  0  0  0  0  0  0  0  0  0
    5.9439   -2.8441    0.7554 N   0  0  0  0  0  0  0  0  0  0  0  0
    7.2189   -3.0042    0.3200 C   0  0  0  0  0  0  0  0  0  0  0  0
    8.4280   -3.3285    0.9003 C   0  0  0  0  0  0  0  0  0  0  0  0
    9.5916   -3.4082    0.1720 C   0  0  0  0  0  0  0  0  0  0  0  0
   10.8147   -3.7431    0.8232 N   0  0  0  0  0  4  0  0  0  0  0  0
   11.8525   -3.7986    0.1404 O   0  0  0  0  0  0  0  0  0  0  0  0
   10.8256   -3.9923    2.1637 O   0  0  0  0  0  1  0  0  0  0  0  0
    9.5737   -3.1580   -1.1933 C   0  0  0  0  0  0  0  0  0  0  0  0
    8.3465   -2.8317   -1.7641 C   0  0  0  0  0  0  0  0  0  0  0  0
    7.1777   -2.7493   -1.0464 C   0  0  0  0  0  0  0  0  0  0  0  0
    5.8973   -2.4513   -1.3679 N   0  0  0  0  0  0  0  0  0  0  0  0
    2.9990   -2.2893    0.9967 C   0  0  0  0  0  0  0  0  0  0  0  0
    1.6551   -2.0323    0.9966 C   0  0  0  0  0  0  0  0  0  0  0  0
    0.0657    0.8735    0.0489 N   0  0  0  0  0  0  0  0  0  0  0  0
    0.1306    4.5373    0.4143 C   0  0  0  0  0  0  0  0  0  0  0  0
    0.9884    5.5858    0.5524 C   0  0  0  0  0  0  0  0  0  0  0  0
    2.0444    8.1410    2.9277 H   0  0  0  0  0  0  0  0  0  0  0  0
    3.6784    8.8237    3.0674 H   0  0  0  0  0  0  0  0  0  0  0  0
    2.7893    8.8998    1.4521 H   0  0  0  0  0  0  0  0  0  0  0  0
    4.6832    7.0376    2.1001 H   0  0  0  0  0  0  0  0  0  0  0  0
    3.2178    6.2177    2.8080 H   0  0  0  0  0  0  0  0  0  0  0  0
    3.3107    8.2021   -0.4530 H   0  0  0  0  0  0  0  0  0  0  0  0
    4.8493    7.1861   -0.4699 H   0  0  0  0  0  0  0  0  0  0  0  0
    3.8931    5.6123   -1.9174 H   0  0  0  0  0  0  0  0  0  0  0  0
    2.1614    6.1977   -1.5974 H   0  0  0  0  0  0  0  0  0  0  0  0
    3.2858    7.2162   -2.5220 H   0  0  0  0  0  0  0  0  0  0  0  0
    3.9011    3.9587    0.4776 H   0  0  0  0  0  0  0  0  0  0  0  0
    2.3474    2.0321    0.2230 H   0  0  0  0  0  0  0  0  0  0  0  0
   -5.0620    0.4201    1.9656 H   0  0  0  0  0  0  0  0  0  0  0  0
   -6.6341   -1.5129    1.8366 H   0  0  0  0  0  0  0  0  0  0  0  0
   -9.7893   -5.1743    2.1120 H   0  0  0  0  0  0  0  0  0  0  0  0
  -10.9470   -7.0278   -1.5237 H   0  0  0  0  0  0  0  0  0  0  0  0
   -9.4431   -5.4030   -2.7331 H   0  0  0  0  0  0  0  0  0  0  0  0
   -7.6487   -3.2095   -2.3450 H   0  0  0  0  0  0  0  0  0  0  0  0
   -6.2892   -1.4930   -2.3650 H   0  0  0  0  0  0  0  0  0  0  0  0
   -4.7150    0.4500   -2.2147 H   0  0  0  0  0  0  0  0  0  0  0  0
    1.1052   -1.4603   -2.2677 H   0  0  0  0  0  0  0  0  0  0  0  0
    3.5370   -1.9108   -2.3236 H   0  0  0  0  0  0  0  0  0  0  0  0
    8.4585   -3.5239    1.9526 H   0  0  0  0  0  0  0  0  0  0  0  0
   10.4967   -3.2244   -1.7589 H   0  0  0  0  0  0  0  0  0  0  0  0
    8.3255   -2.6381   -2.8134 H   0  0  0  0  0  0  0  0  0  0  0  0
    5.5514   -2.2104   -2.3365 H   0  0  0  0  0  0  0  0  0  0  0  0
    3.5595   -2.5226    1.8798 H   0  0  0  0  0  0  0  0  0  0  0  0
    1.0817   -2.0537    1.9080 H   0  0  0  0  0  0  0  0  0  0  0  0
   -0.9406    4.6712    0.3930 H   0  0  0  0  0  0  0  0  0  0  0  0
    0.6369    6.5960    0.6477 H   0  0  0  0  0  0  0  0  0  0  0  0
  1  2  1  0
  2  3  1  0
  3  4  1  0
  4  5  1  0
  3  6  1  0
  6  7  2  0
  7  8  1  0
  8  9  2  0
  9 10  1  0
 10 11  2  0
 11 12  1  0
 12 13  1  0
 13 14  1  0
 14 15  2  0
 15 16  1  0
 16 17  2  0
 17 18  1  0
 18 19  2  0
 19 20  1  0
 20 21  2  0
 21 22  1  0
 22 23  1  0
 23 24  2  0
 23 25  1  0
 22 26  2  0
 26 27  1  0
 27 28  2  0
 28 29  1  0
 17 30  1  0
 30 31  2  0
 12 32  2  0
 32 33  1  0
 33 34  1  0
 34 35  1  0
 35 36  2  0
 36 37  1  0
 37 38  2  0
 38 39  1  0
 39 40  2  0
 40 41  1  0
 41 42  2  0
 42 43  1  0
 43 44  1  0
 44 45  2  0
 44 46  1  0
 43 47  2  0
 47 48  1  0
 48 49  2  0
 49 50  1  0
 38 51  1  0
 51 52  2  0
 33 53  2  0
  9 54  1  0
 54 55  2  0
 55  6  1  0
 53 10  1  0
 31 14  1  0
 52 35  1  0
 29 18  1  0
 50 39  1  0
 28 20  1  0
 49 41  1  0
  1 56  1  0
  1 57  1  0
  1 58  1  0
  2 59  1  0
  2 60  1  0
  4 61  1  0
  4 62  1  0
  5 63  1  0
  5 64  1  0
  5 65  1  0
  7 66  1  0
  8 67  1  0
 15 68  1  0
 16 69  1  0
 21 70  1  0
 26 71  1  0
 27 72  1  0
 29 73  1  0
 30 74  1  0
 31 75  1  0
 36 76  1  0
 37 77  1  0
 42 78  1  0
 47 79  1  0
 48 80  1  0
 50 81  1  0
 51 82  1  0
 52 83  1  0
 54 84  1  0
 55 85  1  0
M  CHG  4  23   1  25  -1  44   1  46  -1
M  END
