
     RDKit          3D

 71 77  0  0  0  0  0  0  0  0999 V2000
    3.2794    1.9564   -1.5965 C   0  0  0  0  0  0  0  0  0  0  0  0
    4.3429    1.3514   -0.8145 N   0  0  0  0  0  0  0  0  0  0  0  0
    4.2335    0.4678    0.2713 C   0  0  0  0  0  0  0  0  0  0  0  0
    3.1590   -0.1286    0.7305 C   0  0  0  0  0  0  0  0  0  0  0  0
    1.8540    0.0389    0.1541 C   0  0  0  0  0  0  0  0  0  0  0  0
    0.8277   -0.5893    0.6859 C   0  0  0  0  0  0  0  0  0  0  0  0
   -0.5569   -0.6048    0.3291 C   0  0  0  0  0  0  0  0  0  0  0  0
   -1.3266   -1.3966    1.0992 C   0  0  0  0  0  0  0  0  0  0  0  0
   -0.9875   -2.2329    2.2345 C   0  0  0  0  0  0  0  0  0  0  0  0
   -2.0921   -2.7922    2.6672 C   0  0  0  0  0  0  0  0  0  0  0  0
   -3.2122   -2.3275    1.8059 C   0  0  0  0  0  0  0  0  0  0  0  0
   -4.5582   -2.8298    2.0547 C   0  0  0  0  0  0  0  0  0  0  0  0
   -5.6273   -2.7084    1.2069 C   0  0  0  0  0  0  0  0  0  0  0  0
   -6.8988   -3.1627    1.5591 C   0  0  0  0  0  0  0  0  0  0  0  0
   -7.1199   -3.7493    2.7707 C   0  0  0  0  0  0  0  0  0  0  0  0
   -6.0551   -3.8840    3.6439 C   0  0  0  0  0  0  0  0  0  0  0  0
   -4.8147   -3.4354    3.2902 C   0  0  0  0  0  0  0  0  0  0  0  0
   -2.7071   -1.5167    0.9052 N   0  0  0  0  0  4  0  0  0  0  0  0
   -3.4302   -0.8003   -0.2315 B   0  0  0  0  0  4  0  0  0  0  0  0
   -3.7796   -1.8560   -1.2041 F   0  0  0  0  0  0  0  0  0  0  0  0
   -4.5524   -0.0624    0.2299 F   0  0  0  0  0  0  0  0  0  0  0  0
   -2.4977    0.1666   -1.0030 N   0  0  0  0  0  0  0  0  0  0  0  0
   -1.1527    0.2000   -0.7452 C   0  0  0  0  0  0  0  0  0  0  0  0
   -0.5745    1.1255   -1.5793 C   0  0  0  0  0  0  0  0  0  0  0  0
   -1.5822    1.6611   -2.3515 C   0  0  0  0  0  0  0  0  0  0  0  0
   -2.7743    1.0420   -1.9687 C   0  0  0  0  0  0  0  0  0  0  0  0
   -4.0587    1.4404   -2.5753 C   0  0  0  0  0  0  0  0  0  0  0  0
   -5.2367    0.7868   -2.5080 C   0  0  0  0  0  0  0  0  0  0  0  0
   -6.3983    1.3337   -3.0812 C   0  0  0  0  0  0  0  0  0  0  0  0
   -6.4163    2.5362   -3.7331 C   0  0  0  0  0  0  0  0  0  0  0  0
   -5.2208    3.2167   -3.8128 C   0  0  0  0  0  0  0  0  0  0  0  0
   -4.0892    2.6842   -3.2534 C   0  0  0  0  0  0  0  0  0  0  0  0
    5.6165    0.2711    0.8269 C   0  0  0  0  0  0  0  0  0  0  0  0
    5.7483    0.9911    2.1587 C   0  0  0  0  0  0  0  0  0  0  0  0
    5.9198   -1.1979    1.0007 C   0  0  0  0  0  0  0  0  0  0  0  0
    6.4922    0.9372   -0.1340 C   0  0  0  0  0  0  0  0  0  0  0  0
    7.8822    0.9878   -0.1805 C   0  0  0  0  0  0  0  0  0  0  0  0
    8.5014    1.7223   -1.1387 C   0  0  0  0  0  0  0  0  0  0  0  0
    7.7409    2.4294   -2.0808 C   0  0  0  0  0  0  0  0  0  0  0  0
    6.3726    2.3751   -2.0309 C   0  0  0  0  0  0  0  0  0  0  0  0
    5.7470    1.6260   -1.0554 C   0  0  0  0  0  0  0  0  0  0  0  0
    2.8729    1.3194   -2.3920 H   0  0  0  0  0  0  0  0  0  0  0  0
    2.5549    2.5465   -1.0025 H   0  0  0  0  0  0  0  0  0  0  0  0
    3.7809    2.7865   -2.1961 H   0  0  0  0  0  0  0  0  0  0  0  0
    3.3204   -0.7867    1.6126 H   0  0  0  0  0  0  0  0  0  0  0  0
    1.6705    0.5964   -0.6783 H   0  0  0  0  0  0  0  0  0  0  0  0
    1.1373   -1.2086    1.5774 H   0  0  0  0  0  0  0  0  0  0  0  0
   -0.0242   -2.4002    2.6809 H   0  0  0  0  0  0  0  0  0  0  0  0
   -2.1259   -3.4780    3.5114 H   0  0  0  0  0  0  0  0  0  0  0  0
   -5.5124   -2.2788    0.2328 H   0  0  0  0  0  0  0  0  0  0  0  0
   -7.6988   -3.0433    0.8620 H   0  0  0  0  0  0  0  0  0  0  0  0
   -8.0815   -4.1074    3.0699 H   0  0  0  0  0  0  0  0  0  0  0  0
   -6.1940   -4.3426    4.6082 H   0  0  0  0  0  0  0  0  0  0  0  0
   -3.9754   -3.5302    3.9814 H   0  0  0  0  0  0  0  0  0  0  0  0
    0.4573    1.4285   -1.6618 H   0  0  0  0  0  0  0  0  0  0  0  0
   -1.4278    2.4106   -3.1004 H   0  0  0  0  0  0  0  0  0  0  0  0
   -5.3106   -0.1792   -2.0509 H   0  0  0  0  0  0  0  0  0  0  0  0
   -7.3151    0.7753   -3.0004 H   0  0  0  0  0  0  0  0  0  0  0  0
   -7.3479    2.8868   -4.1454 H   0  0  0  0  0  0  0  0  0  0  0  0
   -5.2152    4.1664   -4.3238 H   0  0  0  0  0  0  0  0  0  0  0  0
   -3.1853    3.2649   -3.3427 H   0  0  0  0  0  0  0  0  0  0  0  0
    5.7897    2.0904    1.9105 H   0  0  0  0  0  0  0  0  0  0  0  0
    4.9074    0.7701    2.8438 H   0  0  0  0  0  0  0  0  0  0  0  0
    6.7376    0.7423    2.5924 H   0  0  0  0  0  0  0  0  0  0  0  0
    5.2465   -1.5949    1.7833 H   0  0  0  0  0  0  0  0  0  0  0  0
    5.9097   -1.7494    0.0634 H   0  0  0  0  0  0  0  0  0  0  0  0
    6.9514   -1.2572    1.4135 H   0  0  0  0  0  0  0  0  0  0  0  0
    8.4233    0.4180    0.5771 H   0  0  0  0  0  0  0  0  0  0  0  0
    9.5839    1.7781   -1.1965 H   0  0  0  0  0  0  0  0  0  0  0  0
    8.2873    2.9944   -2.8153 H   0  0  0  0  0  0  0  0  0  0  0  0
    5.7858    2.9087   -2.7419 H   0  0  0  0  0  0  0  0  0  0  0  0
  1  2  1  0
  2  3  1  0
  3  4  2  0
  4  5  1  0
  5  6  2  0
  6  7  1  0
  7  8  2  0
  8  9  1  0
  9 10  2  0
 10 11  1  0
 11 12  1  0
 12 13  2  0
 13 14  1  0
 14 15  2  0
 15 16  1  0
 16 17  2  0
 11 18  2  0
 18 19  1  0
 19 20  1  0
 19 21  1  0
 19 22  1  0
 22 23  1  0
 23 24  2  0
 24 25  1  0
 25 26  2  0
 26 27  1  0
 27 28  2  0
 28 29  1  0
 29 30  2  0
 30 31  1  0
 31 32  2  0
  3 33  1  0
 33 34  1  0
 33 35  1  0
 33 36  1  0
 36 37  2  0
 37 38  1  0
 38 39  2  0
 39 40  1  0
 40 41  2  0
 41  2  1  0
 23  7  1  0
 32 27  1  0
 41 36  1  0
 18  8  1  0
 26 22  1  0
 17 12  1  0
  1 42  1  0
  1 43  1  0
  1 44  1  0
  4 45  1  0
  5 46  1  0
  6 47  1  0
  9 48  1  0
 10 49  1  0
 13 50  1  0
 14 51  1  0
 15 52  1  0
 16 53  1  0
 17 54  1  0
 24 55  1  0
 25 56  1  0
 28 57  1  0
 29 58  1  0
 30 59  1  0
 31 60  1  0
 32 61  1  0
 34 62  1  0
 34 63  1  0
 34 64  1  0
 35 65  1  0
 35 66  1  0
 35 67  1  0
 37 68  1  0
 38 69  1  0
 39 70  1  0
 40 71  1  0
M  CHG  2  18   1  19  -1
M  END
