
     RDKit          3D

 30 31  0  0  0  0  0  0  0  0999 V2000
   -5.6465    0.6887    0.2550 C   0  0  0  0  0  0  0  0  0  0  0  0
   -4.8250   -0.2667    0.9002 O   0  0  0  0  0  0  0  0  0  0  0  0
   -3.4618   -0.2006    0.6365 C   0  0  0  0  0  0  0  0  0  0  0  0
   -2.9098    0.7456   -0.2149 C   0  0  0  0  0  0  0  0  0  0  0  0
   -1.5575    0.8140   -0.4784 C   0  0  0  0  0  0  0  0  0  0  0  0
   -0.7437   -0.1095    0.1439 C   0  0  0  0  0  0  0  0  0  0  0  0
    0.7078   -0.0730   -0.1093 C   0  0  0  0  0  0  0  0  0  0  0  0
    1.1407    0.3476   -1.3497 C   0  0  0  0  0  0  0  0  0  0  0  0
    2.4901    0.4011   -1.6396 C   0  0  0  0  0  0  0  0  0  0  0  0
    3.4249    0.0275   -0.6729 C   0  0  0  0  0  0  0  0  0  0  0  0
    4.7851    0.0684   -0.9288 O   0  0  0  0  0  0  0  0  0  0  0  0
    5.7061   -0.3109    0.0551 C   0  0  0  0  0  0  0  0  0  0  0  0
    2.9664   -0.3876    0.5543 C   0  0  0  0  0  0  0  0  0  0  0  0
    1.6200   -0.4412    0.8445 C   0  0  0  0  0  0  0  0  0  0  0  0
   -1.2743   -1.0539    0.9905 C   0  0  0  0  0  0  0  0  0  0  0  0
   -2.6251   -1.1077    1.2422 C   0  0  0  0  0  0  0  0  0  0  0  0
   -5.3916    1.6988    0.6550 H   0  0  0  0  0  0  0  0  0  0  0  0
   -6.6938    0.4823    0.5764 H   0  0  0  0  0  0  0  0  0  0  0  0
   -5.5110    0.6211   -0.8383 H   0  0  0  0  0  0  0  0  0  0  0  0
   -3.5926    1.4569   -0.6856 H   0  0  0  0  0  0  0  0  0  0  0  0
   -1.1246    1.5487   -1.1410 H   0  0  0  0  0  0  0  0  0  0  0  0
    0.4413    0.6494   -2.1378 H   0  0  0  0  0  0  0  0  0  0  0  0
    2.8921    0.7197   -2.5838 H   0  0  0  0  0  0  0  0  0  0  0  0
    5.7285   -1.4058    0.2496 H   0  0  0  0  0  0  0  0  0  0  0  0
    5.4802    0.1520    1.0615 H   0  0  0  0  0  0  0  0  0  0  0  0
    6.7122    0.0334   -0.2890 H   0  0  0  0  0  0  0  0  0  0  0  0
    3.6459   -0.6927    1.3528 H   0  0  0  0  0  0  0  0  0  0  0  0
    1.2327   -0.7672    1.8112 H   0  0  0  0  0  0  0  0  0  0  0  0
   -0.5943   -1.7705    1.4664 H   0  0  0  0  0  0  0  0  0  0  0  0
   -3.0221   -1.8683    1.9203 H   0  0  0  0  0  0  0  0  0  0  0  0
  1  2  1  0
  2  3  1  0
  3  4  2  0
  4  5  1  0
  5  6  2  0
  6  7  1  0
  7  8  2  0
  8  9  1  0
  9 10  2  0
 10 11  1  0
 11 12  1  0
 10 13  1  0
 13 14  2  0
  6 15  1  0
 15 16  2  0
 16  3  1  0
 14  7  1  0
  1 17  1  0
  1 18  1  0
  1 19  1  0
  4 20  1  0
  5 21  1  0
  8 22  1  0
  9 23  1  0
 12 24  1  0
 12 25  1  0
 12 26  1  0
 13 27  1  0
 14 28  1  0
 15 29  1  0
 16 30  1  0
M  END
