
     RDKit          3D

 53 57  0  0  0  0  0  0  0  0999 V2000
   -2.7033    4.0577    1.1126 C   0  0  0  0  0  0  0  0  0  0  0  0
   -3.6308    3.2220    0.2938 C   0  0  0  0  0  0  0  0  0  0  0  0
   -2.9862    2.2243   -0.4557 O   0  0  0  0  0  0  0  0  0  0  0  0
   -2.2327    1.2300    0.1453 C   0  0  0  0  0  0  0  0  0  0  0  0
   -2.1334    1.2328    1.3749 O   0  0  0  0  0  0  0  0  0  0  0  0
   -1.6016    0.2340   -0.7545 C   0  0  0  0  0  0  0  0  0  0  0  0
   -1.9004    0.5001   -2.0956 O   0  0  0  0  0  0  0  0  0  0  0  0
   -0.1446    0.3436   -0.5053 C   0  0  0  0  0  0  0  0  0  0  0  0
    0.7393    1.4176   -0.6003 C   0  0  0  0  0  0  0  0  0  0  0  0
    2.0585    1.2219   -0.3031 C   0  0  0  0  0  0  0  0  0  0  0  0
    2.9107    2.3170   -0.4091 C   0  0  0  0  0  0  0  0  0  0  0  0
    4.2592    2.1807   -0.1209 C   0  0  0  0  0  0  0  0  0  0  0  0
    4.7664    0.9607    0.2727 C   0  0  0  0  0  0  0  0  0  0  0  0
    6.1118    0.8595    0.5518 C   0  0  0  0  0  0  0  0  0  0  0  0
    6.6162   -0.3645    0.9459 C   0  0  0  0  0  0  0  0  0  0  0  0
    5.8164   -1.4837    1.0678 C   0  0  0  0  0  0  0  0  0  0  0  0
    4.4611   -1.3392    0.7762 C   0  0  0  0  0  0  0  0  0  0  0  0
    3.5928   -2.4035    0.8717 C   0  0  0  0  0  0  0  0  0  0  0  0
    2.2247   -2.2809    0.5831 C   0  0  0  0  0  0  0  0  0  0  0  0
    1.7091   -1.0648    0.1889 C   0  0  0  0  0  0  0  0  0  0  0  0
    0.3545   -0.8718   -0.1143 C   0  0  0  0  0  0  0  0  0  0  0  0
   -0.7573   -1.7908   -0.0999 C   0  0  0  0  0  0  0  0  0  0  0  0
   -0.6515   -3.0181    0.2197 O   0  0  0  0  0  0  0  0  0  0  0  0
   -1.9331   -1.1028   -0.4898 N   0  0  0  0  0  0  0  0  0  0  0  0
   -3.2161   -1.8101   -0.5584 C   0  0  0  0  0  0  0  0  0  0  0  0
   -3.0982   -2.9409   -1.5580 C   0  0  0  0  0  0  0  0  0  0  0  0
   -3.5265   -2.4160    0.7878 C   0  0  0  0  0  0  0  0  0  0  0  0
   -4.3239   -0.8941   -1.0089 C   0  0  0  0  0  0  0  0  0  0  0  0
    2.5743    0.0055    0.0913 C   0  0  0  0  0  0  0  0  0  0  0  0
    3.9204   -0.1337    0.3798 C   0  0  0  0  0  0  0  0  0  0  0  0
   -3.1635    5.0789    1.1987 H   0  0  0  0  0  0  0  0  0  0  0  0
   -1.7102    4.2025    0.6890 H   0  0  0  0  0  0  0  0  0  0  0  0
   -2.5920    3.6972    2.1528 H   0  0  0  0  0  0  0  0  0  0  0  0
   -4.1515    3.8862   -0.4399 H   0  0  0  0  0  0  0  0  0  0  0  0
   -4.4201    2.8110    0.9489 H   0  0  0  0  0  0  0  0  0  0  0  0
   -1.1303    0.8220   -2.6020 H   0  0  0  0  0  0  0  0  0  0  0  0
    0.3098    2.3621   -0.9120 H   0  0  0  0  0  0  0  0  0  0  0  0
    2.4833    3.2473   -0.7169 H   0  0  0  0  0  0  0  0  0  0  0  0
    4.9148    3.0274   -0.2035 H   0  0  0  0  0  0  0  0  0  0  0  0
    6.7164    1.7354    0.4524 H   0  0  0  0  0  0  0  0  0  0  0  0
    7.6715   -0.4594    1.1686 H   0  0  0  0  0  0  0  0  0  0  0  0
    6.1956   -2.4557    1.3767 H   0  0  0  0  0  0  0  0  0  0  0  0
    4.0085   -3.3485    1.1809 H   0  0  0  0  0  0  0  0  0  0  0  0
    1.5787   -3.1261    0.6672 H   0  0  0  0  0  0  0  0  0  0  0  0
   -2.4582   -2.6417   -2.4048 H   0  0  0  0  0  0  0  0  0  0  0  0
   -2.6636   -3.8568   -1.1268 H   0  0  0  0  0  0  0  0  0  0  0  0
   -4.0936   -3.1995   -2.0001 H   0  0  0  0  0  0  0  0  0  0  0  0
   -2.9607   -3.3800    0.8878 H   0  0  0  0  0  0  0  0  0  0  0  0
   -4.6166   -2.6549    0.8510 H   0  0  0  0  0  0  0  0  0  0  0  0
   -3.2960   -1.7331    1.6275 H   0  0  0  0  0  0  0  0  0  0  0  0
   -4.6341   -0.1830   -0.2150 H   0  0  0  0  0  0  0  0  0  0  0  0
   -4.0529   -0.3978   -1.9470 H   0  0  0  0  0  0  0  0  0  0  0  0
   -5.2111   -1.5257   -1.2233 H   0  0  0  0  0  0  0  0  0  0  0  0
  1  2  1  0
  2  3  1  0
  3  4  1  0
  4  5  2  0
  4  6  1  0
  6  7  1  0
  6  8  1  0
  8  9  2  0
  9 10  1  0
 10 11  2  0
 11 12  1  0
 12 13  2  0
 13 14  1  0
 14 15  2  0
 15 16  1  0
 16 17  2  0
 17 18  1  0
 18 19  2  0
 19 20  1  0
 20 21  2  0
 21 22  1  0
 22 23  2  0
 22 24  1  0
 24 25  1  0
 25 26  1  0
 25 27  1  0
 25 28  1  0
 20 29  1  0
 29 30  2  0
 24  6  1  0
 21  8  1  0
 29 10  1  0
 30 13  1  0
 30 17  1  0
  1 31  1  0
  1 32  1  0
  1 33  1  0
  2 34  1  0
  2 35  1  0
  7 36  1  0
  9 37  1  0
 11 38  1  0
 12 39  1  0
 14 40  1  0
 15 41  1  0
 16 42  1  0
 18 43  1  0
 19 44  1  0
 26 45  1  0
 26 46  1  0
 26 47  1  0
 27 48  1  0
 27 49  1  0
 27 50  1  0
 28 51  1  0
 28 52  1  0
 28 53  1  0
M  END
