
     RDKit          3D

 21 21  0  0  0  0  0  0  0  0999 V2000
   -2.3144    1.2799   -0.3200 C   0  0  0  0  0  0  0  0  0  0  0  0
   -1.6209    0.0821    0.1128 N   0  0  0  0  0  0  0  0  0  0  0  0
   -2.3331   -1.0517    0.6412 C   0  0  0  0  0  0  0  0  0  0  0  0
   -0.1825    0.0325    0.0083 C   0  0  0  0  0  0  0  0  0  0  0  0
    0.4868   -1.0979    0.4166 C   0  0  0  0  0  0  0  0  0  0  0  0
    1.8572   -1.1682    0.3263 C   0  0  0  0  0  0  0  0  0  0  0  0
    2.6021   -0.1222   -0.1703 C   0  0  0  0  0  0  0  0  0  0  0  0
    4.0506   -0.1993   -0.2645 C   0  0  0  0  0  0  0  0  0  0  0  0
    5.2011   -0.2778   -0.3293 N   0  0  0  0  0  0  0  0  0  0  0  0
    1.9023    0.9965   -0.5711 C   0  0  0  0  0  0  0  0  0  0  0  0
    0.5357    1.0923   -0.4917 C   0  0  0  0  0  0  0  0  0  0  0  0
   -3.3670    1.1933    0.0013 H   0  0  0  0  0  0  0  0  0  0  0  0
   -2.2660    1.4253   -1.4194 H   0  0  0  0  0  0  0  0  0  0  0  0
   -1.8170    2.1767    0.1294 H   0  0  0  0  0  0  0  0  0  0  0  0
   -2.1109   -1.2714    1.6955 H   0  0  0  0  0  0  0  0  0  0  0  0
   -1.9990   -1.9596    0.0666 H   0  0  0  0  0  0  0  0  0  0  0  0
   -3.4266   -0.9513    0.4890 H   0  0  0  0  0  0  0  0  0  0  0  0
   -0.0992   -1.9150    0.8049 H   0  0  0  0  0  0  0  0  0  0  0  0
    2.3997   -2.0596    0.6470 H   0  0  0  0  0  0  0  0  0  0  0  0
    2.5051    1.8289   -0.9671 H   0  0  0  0  0  0  0  0  0  0  0  0
   -0.0041    1.9666   -0.8056 H   0  0  0  0  0  0  0  0  0  0  0  0
  1  2  1  0
  2  3  1  0
  2  4  1  0
  4  5  2  0
  5  6  1  0
  6  7  2  0
  7  8  1  0
  8  9  3  0
  7 10  1  0
 10 11  2  0
 11  4  1  0
  1 12  1  0
  1 13  1  0
  1 14  1  0
  3 15  1  0
  3 16  1  0
  3 17  1  0
  5 18  1  0
  6 19  1  0
 10 20  1  0
 11 21  1  0
M  END
