
     RDKit          3D

 67 75  0  0  0  0  0  0  0  0999 V2000
    0.7427    3.1308    0.0892 F   0  0  0  0  0  0  0  0  0  0  0  0
    0.0447    1.9788    0.0903 C   0  0  0  0  0  0  0  0  0  0  0  0
   -1.3323    1.9904    0.2310 C   0  0  0  0  0  0  0  0  0  0  0  0
   -1.9431    3.1882    0.3657 F   0  0  0  0  0  0  0  0  0  0  0  0
   -2.1057    0.8479    0.2403 C   0  0  0  0  0  0  0  0  0  0  0  0
   -3.5213    0.8834    0.3864 N   0  0  0  0  0  0  0  0  0  0  0  0
   -4.2061    0.3461    1.4307 C   0  0  0  0  0  0  0  0  0  0  0  0
   -3.7349   -0.3274    2.5442 C   0  0  0  0  0  0  0  0  0  0  0  0
   -4.6153   -0.8078    3.5174 C   0  0  0  0  0  0  0  0  0  0  0  0
   -5.9660   -0.5925    3.3381 C   0  0  0  0  0  0  0  0  0  0  0  0
   -6.4171    0.0899    2.2061 C   0  0  0  0  0  0  0  0  0  0  0  0
   -5.5550    0.5644    1.2459 C   0  0  0  0  0  0  0  0  0  0  0  0
   -5.6966    1.2532    0.0571 C   0  0  0  0  0  0  0  0  0  0  0  0
   -6.8249    1.7104   -0.5797 C   0  0  0  0  0  0  0  0  0  0  0  0
   -6.6203    2.3764   -1.7796 C   0  0  0  0  0  0  0  0  0  0  0  0
   -5.3739    2.5752   -2.3121 C   0  0  0  0  0  0  0  0  0  0  0  0
   -4.2616    2.0927   -1.6284 C   0  0  0  0  0  0  0  0  0  0  0  0
   -4.4273    1.4284   -0.4375 C   0  0  0  0  0  0  0  0  0  0  0  0
   -1.4323   -0.3609    0.0986 C   0  0  0  0  0  0  0  0  0  0  0  0
   -2.1941   -1.4862    0.1078 F   0  0  0  0  0  0  0  0  0  0  0  0
   -0.0616   -0.4160   -0.0440 C   0  0  0  0  0  0  0  0  0  0  0  0
    0.6199   -1.6436   -0.1877 N   0  0  0  0  0  0  0  0  0  0  0  0
    1.2297   -2.4032    0.7504 C   0  0  0  0  0  0  0  0  0  0  0  0
    1.3188   -2.1259    2.1097 C   0  0  0  0  0  0  0  0  0  0  0  0
    1.9944   -3.0475    2.8967 C   0  0  0  0  0  0  0  0  0  0  0  0
    2.5420   -4.1772    2.3300 C   0  0  0  0  0  0  0  0  0  0  0  0
    2.4441   -4.4376    0.9759 C   0  0  0  0  0  0  0  0  0  0  0  0
    1.7738   -3.5211    0.2016 C   0  0  0  0  0  0  0  0  0  0  0  0
    1.4950   -3.4689   -1.1559 C   0  0  0  0  0  0  0  0  0  0  0  0
    1.8068   -4.3403   -2.1967 C   0  0  0  0  0  0  0  0  0  0  0  0
    1.3930   -4.0270   -3.4696 C   0  0  0  0  0  0  0  0  0  0  0  0
    0.6809   -2.8687   -3.7108 C   0  0  0  0  0  0  0  0  0  0  0  0
    0.3879   -2.0274   -2.6622 C   0  0  0  0  0  0  0  0  0  0  0  0
    0.7878   -2.3080   -1.3623 C   0  0  0  0  0  0  0  0  0  0  0  0
    0.6761    0.7518   -0.0482 C   0  0  0  0  0  0  0  0  0  0  0  0
    2.1214    0.6644   -0.2003 C   0  0  0  0  0  0  0  0  0  0  0  0
    2.8908   -0.4238   -0.3446 N   0  0  0  0  0  0  0  0  0  0  0  0
    4.1502    0.0191   -0.4457 N   0  0  0  0  0  0  0  0  0  0  0  0
    4.1573    1.3454   -0.3658 C   0  0  0  0  0  0  0  0  0  0  0  0
    5.2746    2.2814   -0.4224 C   0  0  0  0  0  0  0  0  0  0  0  0
    5.0901    3.6393   -0.3212 C   0  0  0  0  0  0  0  0  0  0  0  0
    6.1450    4.5377   -0.3737 C   0  0  0  0  0  0  0  0  0  0  0  0
    7.4342    4.0767   -0.5327 C   0  0  0  0  0  0  0  0  0  0  0  0
    7.6486    2.7111   -0.6374 C   0  0  0  0  0  0  0  0  0  0  0  0
    6.5695    1.8334   -0.5812 C   0  0  0  0  0  0  0  0  0  0  0  0
    2.9140    1.7072   -0.2175 O   0  0  0  0  0  0  0  0  0  0  0  0
   -2.6731   -0.4895    2.6726 H   0  0  0  0  0  0  0  0  0  0  0  0
   -4.2017   -1.3286    4.3711 H   0  0  0  0  0  0  0  0  0  0  0  0
   -6.6568   -0.9517    4.0707 H   0  0  0  0  0  0  0  0  0  0  0  0
   -7.4838    0.2550    2.0732 H   0  0  0  0  0  0  0  0  0  0  0  0
   -7.7958    1.5487   -0.1530 H   0  0  0  0  0  0  0  0  0  0  0  0
   -7.4810    2.7526   -2.3135 H   0  0  0  0  0  0  0  0  0  0  0  0
   -5.2210    3.1010   -3.2581 H   0  0  0  0  0  0  0  0  0  0  0  0
   -3.2919    2.2726   -2.0872 H   0  0  0  0  0  0  0  0  0  0  0  0
    0.8836   -1.2318    2.5479 H   0  0  0  0  0  0  0  0  0  0  0  0
    2.0538   -2.8144    3.9549 H   0  0  0  0  0  0  0  0  0  0  0  0
    3.0556   -4.8644    2.9707 H   0  0  0  0  0  0  0  0  0  0  0  0
    2.8570   -5.3054    0.4986 H   0  0  0  0  0  0  0  0  0  0  0  0
    2.3719   -5.2462   -1.9636 H   0  0  0  0  0  0  0  0  0  0  0  0
    1.6268   -4.6936   -4.2914 H   0  0  0  0  0  0  0  0  0  0  0  0
    0.3418   -2.5986   -4.7117 H   0  0  0  0  0  0  0  0  0  0  0  0
   -0.1762   -1.0933   -2.8012 H   0  0  0  0  0  0  0  0  0  0  0  0
    4.1007    4.0506   -0.1957 H   0  0  0  0  0  0  0  0  0  0  0  0
    5.9416    5.5895   -0.2892 H   0  0  0  0  0  0  0  0  0  0  0  0
    8.2894    4.7410   -0.5792 H   0  0  0  0  0  0  0  0  0  0  0  0
    8.6454    2.3263   -0.7621 H   0  0  0  0  0  0  0  0  0  0  0  0
    6.7702    0.7674   -0.6663 H   0  0  0  0  0  0  0  0  0  0  0  0
  1  2  1  0
  2  3  2  0
  3  4  1  0
  3  5  1  0
  5  6  1  0
  6  7  1  0
  7  8  2  0
  8  9  1  0
  9 10  2  0
 10 11  1  0
 11 12  2  0
 12 13  1  0
 13 14  2  0
 14 15  1  0
 15 16  2  0
 16 17  1  0
 17 18  2  0
  5 19  2  0
 19 20  1  0
 19 21  1  0
 21 22  1  0
 22 23  1  0
 23 24  2  0
 24 25  1  0
 25 26  2  0
 26 27  1  0
 27 28  2  0
 28 29  1  0
 29 30  2  0
 30 31  1  0
 31 32  2  0
 32 33  1  0
 33 34  2  0
 21 35  2  0
 35 36  1  0
 36 37  2  0
 37 38  1  0
 38 39  2  0
 39 40  1  0
 40 41  2  0
 41 42  1  0
 42 43  2  0
 43 44  1  0
 44 45  2  0
 39 46  1  0
 35  2  1  0
 46 36  1  0
 18  6  1  0
 34 22  1  0
 45 40  1  0
 12  7  1  0
 18 13  1  0
 28 23  1  0
 34 29  1  0
  8 47  1  0
  9 48  1  0
 10 49  1  0
 11 50  1  0
 14 51  1  0
 15 52  1  0
 16 53  1  0
 17 54  1  0
 24 55  1  0
 25 56  1  0
 26 57  1  0
 27 58  1  0
 30 59  1  0
 31 60  1  0
 32 61  1  0
 33 62  1  0
 41 63  1  0
 42 64  1  0
 43 65  1  0
 44 66  1  0
 45 67  1  0
M  END
