
     RDKit          3D

 68 72  0  0  0  0  0  0  0  0999 V2000
    1.8497    0.2581   -3.6593 N   0  0  0  0  0  0  0  0  0  0  0  0
    1.3179    0.4070   -2.5017 C   0  0  0  0  0  0  0  0  0  0  0  0
    0.7341    0.5703   -1.2550 C   0  0  0  0  0  0  0  0  0  0  0  0
   -0.6448    0.5667   -1.1199 N   0  0  0  0  0  0  0  0  0  0  0  0
   -1.2217    0.6471    0.1144 C   0  0  0  0  0  0  0  0  0  0  0  0
   -2.6900    0.5515    0.2082 N   0  0  0  0  0  0  0  0  0  0  0  0
   -3.2171   -0.6057    0.7999 C   0  0  0  0  0  0  0  0  0  0  0  0
   -4.5719   -1.0785    0.6288 C   0  0  0  0  0  0  0  0  0  0  0  0
   -5.7351   -0.4284    1.0683 C   0  0  0  0  0  0  0  0  0  0  0  0
   -6.9697   -0.9367    0.9223 C   0  0  0  0  0  0  0  0  0  0  0  0
   -7.2203   -2.1627    0.3374 C   0  0  0  0  0  0  0  0  0  0  0  0
   -8.8216   -2.8127    0.1753 Cl  0  0  0  0  0  0  0  0  0  0  0  0
   -6.0642   -2.8599   -0.1153 C   0  0  0  0  0  0  0  0  0  0  0  0
   -4.8327   -2.3137    0.0416 C   0  0  0  0  0  0  0  0  0  0  0  0
   -3.3674    1.7196   -0.2279 C   0  0  0  0  0  0  0  0  0  0  0  0
   -4.6411    1.6508   -0.8624 C   0  0  0  0  0  0  0  0  0  0  0  0
   -5.6676    2.6555   -0.3883 C   0  0  0  0  0  0  0  0  0  0  0  0
   -6.7975    2.5365   -1.0982 C   0  0  0  0  0  0  0  0  0  0  0  0
   -7.2674    1.8359   -2.0486 C   0  0  0  0  0  0  0  0  0  0  0  0
   -8.7524    1.7636   -2.9212 Cl  0  0  0  0  0  0  0  0  0  0  0  0
   -6.2606    0.8117   -2.5454 C   0  0  0  0  0  0  0  0  0  0  0  0
   -5.0701    0.8673   -1.8727 C   0  0  0  0  0  0  0  0  0  0  0  0
   -0.4357    0.7309    1.1627 C   0  0  0  0  0  0  0  0  0  0  0  0
   -1.0210    0.7612    2.5677 C   0  0  0  0  0  0  0  0  0  0  0  0
   -1.4385    0.7705    3.5975 N   0  0  0  0  0  0  0  0  0  0  0  0
    0.8817    0.7342    1.0749 N   0  0  0  0  0  0  0  0  0  0  0  0
    1.5372    0.6561   -0.1295 C   0  0  0  0  0  0  0  0  0  0  0  0
    2.9487    0.6522   -0.1081 N   0  0  0  0  0  0  0  0  0  0  0  0
    3.5470    0.4109    1.2024 C   0  0  0  0  0  0  0  0  0  0  0  0
    4.3310   -0.8361    1.3126 C   0  0  0  0  0  0  0  0  0  0  0  0
    5.4577   -0.9602    2.0095 C   0  0  0  0  0  0  0  0  0  0  0  0
    6.1987   -2.1144    2.1552 C   0  0  0  0  0  0  0  0  0  0  0  0
    5.7941   -3.2502    1.5652 C   0  0  0  0  0  0  0  0  0  0  0  0
    6.6428   -4.7827    1.6785 Cl  0  0  0  0  0  0  0  0  0  0  0  0
    4.5614   -3.2324    0.7787 C   0  0  0  0  0  0  0  0  0  0  0  0
    3.9090   -2.0226    0.7006 C   0  0  0  0  0  0  0  0  0  0  0  0
    3.7709    0.8572   -1.2487 C   0  0  0  0  0  0  0  0  0  0  0  0
    5.2452    0.9135   -0.8455 C   0  0  0  0  0  0  0  0  0  0  0  0
    6.0618    0.0307   -1.1880 C   0  0  0  0  0  0  0  0  0  0  0  0
    7.4124   -0.1734   -0.7856 C   0  0  0  0  0  0  0  0  0  0  0  0
    7.7686    0.8717    0.1545 C   0  0  0  0  0  0  0  0  0  0  0  0
    9.4035    0.8482    0.7924 Cl  0  0  0  0  0  0  0  0  0  0  0  0
    6.8828    1.8878    0.5593 C   0  0  0  0  0  0  0  0  0  0  0  0
    5.6150    1.8969    0.0468 C   0  0  0  0  0  0  0  0  0  0  0  0
   -2.5119   -1.5111    0.6869 H   0  0  0  0  0  0  0  0  0  0  0  0
   -3.1765   -0.3899    1.9507 H   0  0  0  0  0  0  0  0  0  0  0  0
   -5.6320    0.5373    1.5440 H   0  0  0  0  0  0  0  0  0  0  0  0
   -7.8570   -0.3438    1.2881 H   0  0  0  0  0  0  0  0  0  0  0  0
   -6.2288   -3.8299   -0.5719 H   0  0  0  0  0  0  0  0  0  0  0  0
   -3.9730   -2.8798   -0.3542 H   0  0  0  0  0  0  0  0  0  0  0  0
   -2.6361    2.3490   -0.8597 H   0  0  0  0  0  0  0  0  0  0  0  0
   -3.4451    2.4508    0.6934 H   0  0  0  0  0  0  0  0  0  0  0  0
   -5.3625    3.2590    0.3715 H   0  0  0  0  0  0  0  0  0  0  0  0
   -7.6066    3.3613   -0.7265 H   0  0  0  0  0  0  0  0  0  0  0  0
   -6.5219    0.1828   -3.3026 H   0  0  0  0  0  0  0  0  0  0  0  0
   -4.3056    0.1177   -2.2461 H   0  0  0  0  0  0  0  0  0  0  0  0
    4.0678    1.2403    1.6461 H   0  0  0  0  0  0  0  0  0  0  0  0
    2.6322    0.1884    1.8757 H   0  0  0  0  0  0  0  0  0  0  0  0
    5.8862   -0.0915    2.5451 H   0  0  0  0  0  0  0  0  0  0  0  0
    7.1355   -2.0997    2.7584 H   0  0  0  0  0  0  0  0  0  0  0  0
    4.2559   -4.1233    0.3210 H   0  0  0  0  0  0  0  0  0  0  0  0
    2.9699   -1.9580    0.1039 H   0  0  0  0  0  0  0  0  0  0  0  0
    3.6733   -0.0960   -1.8682 H   0  0  0  0  0  0  0  0  0  0  0  0
    3.5363    1.7070   -1.8741 H   0  0  0  0  0  0  0  0  0  0  0  0
    5.7271   -0.8125   -1.9238 H   0  0  0  0  0  0  0  0  0  0  0  0
    8.0346   -0.9126   -1.0697 H   0  0  0  0  0  0  0  0  0  0  0  0
    7.2607    2.6437    1.2753 H   0  0  0  0  0  0  0  0  0  0  0  0
    4.9148    2.7175    0.3057 H   0  0  0  0  0  0  0  0  0  0  0  0
  1  2  3  0
  2  3  1  0
  3  4  2  0
  4  5  1  0
  5  6  1  0
  6  7  1  0
  7  8  1  0
  8  9  2  0
  9 10  1  0
 10 11  2  0
 11 12  1  0
 11 13  1  0
 13 14  2  0
  6 15  1  0
 15 16  1  0
 16 17  2  0
 17 18  1  0
 18 19  2  0
 19 20  1  0
 19 21  1  0
 21 22  2  0
  5 23  2  0
 23 24  1  0
 24 25  3  0
 23 26  1  0
 26 27  2  0
 27 28  1  0
 28 29  1  0
 29 30  1  0
 30 31  2  0
 31 32  1  0
 32 33  2  0
 33 34  1  0
 33 35  1  0
 35 36  2  0
 28 37  1  0
 37 38  1  0
 38 39  2  0
 39 40  1  0
 40 41  2  0
 41 42  1  0
 41 43  1  0
 43 44  2  0
 27  3  1  0
 36 30  1  0
 44 38  1  0
 14  8  1  0
 22 16  1  0
  7 45  1  0
  7 46  1  0
  9 47  1  0
 10 48  1  0
 13 49  1  0
 14 50  1  0
 15 51  1  0
 15 52  1  0
 17 53  1  0
 18 54  1  0
 21 55  1  0
 22 56  1  0
 29 57  1  0
 29 58  1  0
 31 59  1  0
 32 60  1  0
 35 61  1  0
 36 62  1  0
 37 63  1  0
 37 64  1  0
 39 65  1  0
 40 66  1  0
 43 67  1  0
 44 68  1  0
M  END
