
     RDKit          3D

 27 29  0  0  0  0  0  0  0  0999 V2000
   -3.1010    0.2930    3.1854 N   0  0  0  0  0  0  0  0  0  0  0  0
   -2.1603    0.1917    2.5150 C   0  0  0  0  0  0  0  0  0  0  0  0
   -0.9862    0.0801    1.7042 C   0  0  0  0  0  0  0  0  0  0  0  0
   -1.0052    0.1116    0.3616 C   0  0  0  0  0  0  0  0  0  0  0  0
   -2.2421    0.1489   -0.4240 C   0  0  0  0  0  0  0  0  0  0  0  0
   -3.5483   -0.0663   -0.1567 C   0  0  0  0  0  0  0  0  0  0  0  0
   -4.4358    0.0146   -1.1625 C   0  0  0  0  0  0  0  0  0  0  0  0
   -3.9655    0.3101   -2.4043 C   0  0  0  0  0  0  0  0  0  0  0  0
   -2.2996    0.4692   -2.1465 S   0  0  0  0  0  0  0  0  0  0  0  0
    0.2244    0.0493   -0.3338 C   0  0  0  0  0  0  0  0  0  0  0  0
    1.4169   -0.0428    0.3168 C   0  0  0  0  0  0  0  0  0  0  0  0
    2.6958   -0.1079   -0.4245 C   0  0  0  0  0  0  0  0  0  0  0  0
    2.8731   -0.0855   -1.7840 C   0  0  0  0  0  0  0  0  0  0  0  0
    4.1285   -0.1563   -2.2349 C   0  0  0  0  0  0  0  0  0  0  0  0
    5.1330   -0.2452   -1.3109 C   0  0  0  0  0  0  0  0  0  0  0  0
    4.2873   -0.2269    0.1698 S   0  0  0  0  0  0  0  0  0  0  0  0
    1.3924   -0.0734    1.6550 N   0  0  0  0  0  0  0  0  0  0  0  0
    0.2599   -0.0168    2.3661 C   0  0  0  0  0  0  0  0  0  0  0  0
    0.2263   -0.0447    3.6149 O   0  0  0  0  0  0  0  0  0  0  0  0
   -3.8746   -0.3292    0.8752 H   0  0  0  0  0  0  0  0  0  0  0  0
   -5.5274   -0.1505   -1.0105 H   0  0  0  0  0  0  0  0  0  0  0  0
   -4.5626    0.4125   -3.3324 H   0  0  0  0  0  0  0  0  0  0  0  0
    0.1714    0.0780   -1.4010 H   0  0  0  0  0  0  0  0  0  0  0  0
    1.9821   -0.0106   -2.4515 H   0  0  0  0  0  0  0  0  0  0  0  0
    4.3869   -0.1461   -3.3180 H   0  0  0  0  0  0  0  0  0  0  0  0
    6.2174   -0.3111   -1.5144 H   0  0  0  0  0  0  0  0  0  0  0  0
    2.3131   -0.1455    2.1666 H   0  0  0  0  0  0  0  0  0  0  0  0
  1  2  3  0
  2  3  1  0
  3  4  2  0
  4  5  1  0
  5  6  2  0
  6  7  1  0
  7  8  2  0
  8  9  1  0
  4 10  1  0
 10 11  2  0
 11 12  1  0
 12 13  2  0
 13 14  1  0
 14 15  2  0
 15 16  1  0
 11 17  1  0
 17 18  1  0
 18 19  2  0
 18  3  1  0
  9  5  1  0
 16 12  1  0
  6 20  1  0
  7 21  1  0
  8 22  1  0
 10 23  1  0
 13 24  1  0
 14 25  1  0
 15 26  1  0
 17 27  1  0
M  END
