
     RDKit          3D

 58 62  0  0  0  0  0  0  0  0999 V2000
   -4.5168   -1.2929   -0.4246 C   0  0  0  0  0  0  0  0  0  0  0  0
   -4.7194   -2.2957    0.3985 C   0  0  0  0  0  0  0  0  0  0  0  0
   -5.8461   -3.2308    0.2163 C   0  0  0  0  0  0  0  0  0  0  0  0
   -6.0457   -4.2764    1.0856 C   0  0  0  0  0  0  0  0  0  0  0  0
   -7.0985   -5.1172    0.8820 N   0  0  0  0  0  0  0  0  0  0  0  0
   -7.9574   -4.9665   -0.1413 C   0  0  0  0  0  0  0  0  0  0  0  0
   -7.7444   -3.9071   -1.0113 C   0  0  0  0  0  0  0  0  0  0  0  0
   -6.7043   -3.0787   -0.8078 N   0  0  0  0  0  0  0  0  0  0  0  0
   -3.4325   -0.3459   -0.2973 C   0  0  0  0  0  0  0  0  0  0  0  0
   -3.2937    0.6805   -1.2083 C   0  0  0  0  0  0  0  0  0  0  0  0
   -2.2500    1.6255   -1.1199 C   0  0  0  0  0  0  0  0  0  0  0  0
   -1.3339    1.5737   -0.1391 C   0  0  0  0  0  0  0  0  0  0  0  0
   -0.2344    2.4451    0.0954 N   0  0  0  0  0  0  0  0  0  0  0  0
   -0.2911    3.8504    0.0519 C   0  0  0  0  0  0  0  0  0  0  0  0
    0.1460    4.6232    1.1312 C   0  0  0  0  0  0  0  0  0  0  0  0
    0.2240    5.9939    1.0924 C   0  0  0  0  0  0  0  0  0  0  0  0
   -0.1471    6.6339   -0.0596 C   0  0  0  0  0  0  0  0  0  0  0  0
   -0.5820    5.9129   -1.1380 C   0  0  0  0  0  0  0  0  0  0  0  0
   -0.6523    4.5417   -1.0839 C   0  0  0  0  0  0  0  0  0  0  0  0
    1.0078    1.7455    0.2243 C   0  0  0  0  0  0  0  0  0  0  0  0
    1.2649    0.7467   -0.7449 C   0  0  0  0  0  0  0  0  0  0  0  0
    2.4142   -0.0100   -0.7328 C   0  0  0  0  0  0  0  0  0  0  0  0
    3.3684    0.1806    0.2367 C   0  0  0  0  0  0  0  0  0  0  0  0
    4.5785   -0.6033    0.2643 C   0  0  0  0  0  0  0  0  0  0  0  0
    4.9102   -1.5482   -0.5840 C   0  0  0  0  0  0  0  0  0  0  0  0
    6.1606   -2.2768   -0.4601 C   0  0  0  0  0  0  0  0  0  0  0  0
    7.1068   -2.0857    0.5051 C   0  0  0  0  0  0  0  0  0  0  0  0
    8.2544   -2.8342    0.5246 N   0  0  0  0  0  0  0  0  0  0  0  0
    8.5030   -3.7804   -0.3918 C   0  0  0  0  0  0  0  0  0  0  0  0
    7.5562   -3.9799   -1.3674 C   0  0  0  0  0  0  0  0  0  0  0  0
    6.4322   -3.2477   -1.3875 N   0  0  0  0  0  0  0  0  0  0  0  0
    3.1327    1.1432    1.1806 C   0  0  0  0  0  0  0  0  0  0  0  0
    1.9524    1.9170    1.1646 C   0  0  0  0  0  0  0  0  0  0  0  0
   -1.4731    0.5207    0.7984 C   0  0  0  0  0  0  0  0  0  0  0  0
   -2.4935   -0.3953    0.7038 C   0  0  0  0  0  0  0  0  0  0  0  0
   -5.2271   -1.1782   -1.2618 H   0  0  0  0  0  0  0  0  0  0  0  0
   -4.0714   -2.4746    1.2385 H   0  0  0  0  0  0  0  0  0  0  0  0
   -5.3571   -4.3906    1.8992 H   0  0  0  0  0  0  0  0  0  0  0  0
   -8.7837   -5.6481   -0.2788 H   0  0  0  0  0  0  0  0  0  0  0  0
   -8.4470   -3.8047   -1.8269 H   0  0  0  0  0  0  0  0  0  0  0  0
   -3.9734    0.8043   -2.0231 H   0  0  0  0  0  0  0  0  0  0  0  0
   -2.1932    2.3971   -1.8640 H   0  0  0  0  0  0  0  0  0  0  0  0
    0.3990    4.1399    2.0930 H   0  0  0  0  0  0  0  0  0  0  0  0
    0.5667    6.5760    1.9373 H   0  0  0  0  0  0  0  0  0  0  0  0
   -0.1031    7.7303   -0.1398 H   0  0  0  0  0  0  0  0  0  0  0  0
   -0.8816    6.4473   -2.0686 H   0  0  0  0  0  0  0  0  0  0  0  0
   -0.9716    4.0361   -2.0003 H   0  0  0  0  0  0  0  0  0  0  0  0
    0.4968    0.6090   -1.5070 H   0  0  0  0  0  0  0  0  0  0  0  0
    2.5025   -0.7504   -1.5312 H   0  0  0  0  0  0  0  0  0  0  0  0
    5.2693   -0.3623    1.0871 H   0  0  0  0  0  0  0  0  0  0  0  0
    4.2051   -1.7602   -1.3840 H   0  0  0  0  0  0  0  0  0  0  0  0
    6.9437   -1.3366    1.2571 H   0  0  0  0  0  0  0  0  0  0  0  0
    9.3987   -4.3772   -0.3913 H   0  0  0  0  0  0  0  0  0  0  0  0
    7.7126   -4.7359   -2.1328 H   0  0  0  0  0  0  0  0  0  0  0  0
    3.8494    1.3375    1.9688 H   0  0  0  0  0  0  0  0  0  0  0  0
    1.8106    2.6531    1.9326 H   0  0  0  0  0  0  0  0  0  0  0  0
   -0.7604    0.4305    1.6121 H   0  0  0  0  0  0  0  0  0  0  0  0
   -2.5811   -1.2039    1.4432 H   0  0  0  0  0  0  0  0  0  0  0  0
  1  2  2  0
  2  3  1  0
  3  4  2  0
  4  5  1  0
  5  6  2  0
  6  7  1  0
  7  8  2  0
  1  9  1  0
  9 10  2  0
 10 11  1  0
 11 12  2  0
 12 13  1  0
 13 14  1  0
 14 15  2  0
 15 16  1  0
 16 17  2  0
 17 18  1  0
 18 19  2  0
 13 20  1  0
 20 21  2  0
 21 22  1  0
 22 23  2  0
 23 24  1  0
 24 25  2  0
 25 26  1  0
 26 27  2  0
 27 28  1  0
 28 29  2  0
 29 30  1  0
 30 31  2  0
 23 32  1  0
 32 33  2  0
 12 34  1  0
 34 35  2  0
  8  3  1  0
 35  9  1  0
 19 14  1  0
 33 20  1  0
 31 26  1  0
  1 36  1  0
  2 37  1  0
  4 38  1  0
  6 39  1  0
  7 40  1  0
 10 41  1  0
 11 42  1  0
 15 43  1  0
 16 44  1  0
 17 45  1  0
 18 46  1  0
 19 47  1  0
 21 48  1  0
 22 49  1  0
 24 50  1  0
 25 51  1  0
 27 52  1  0
 29 53  1  0
 30 54  1  0
 32 55  1  0
 33 56  1  0
 34 57  1  0
 35 58  1  0
M  END
