
     RDKit          3D

 72 80  0  0  0  0  0  0  0  0999 V2000
    7.6619    1.6119    0.0240 C   0  0  0  0  0  0  0  0  0  0  0  0
    6.9689    1.1935    1.1461 C   0  0  0  0  0  0  0  0  0  0  0  0
    5.6094    0.9647    1.0372 C   0  0  0  0  0  0  0  0  0  0  0  0
    4.9466    1.1423   -0.1451 C   0  0  0  0  0  0  0  0  0  0  0  0
    3.5165    0.9873   -0.2365 C   0  0  0  0  0  0  0  0  0  0  0  0
    2.8469    2.1933   -0.4905 C   0  0  0  0  0  0  0  0  0  0  0  0
    1.4798    2.3007   -0.4973 C   0  0  0  0  0  0  0  0  0  0  0  0
    0.7788    1.1431   -0.2371 C   0  0  0  0  0  0  0  0  0  0  0  0
   -0.6241    1.2179   -0.2334 C   0  0  0  0  0  0  0  0  0  0  0  0
   -1.2306    2.4192   -0.4847 C   0  0  0  0  0  0  0  0  0  0  0  0
   -2.5900    2.4547   -0.4764 C   0  0  0  0  0  0  0  0  0  0  0  0
   -3.4073    1.3362   -0.2262 C   0  0  0  0  0  0  0  0  0  0  0  0
   -4.8215    1.5470   -0.4129 C   0  0  0  0  0  0  0  0  0  0  0  0
   -5.4997    0.9601   -1.4304 C   0  0  0  0  0  0  0  0  0  0  0  0
   -6.8246    1.2280   -1.6696 C   0  0  0  0  0  0  0  0  0  0  0  0
   -7.5022    2.1141   -0.8661 C   0  0  0  0  0  0  0  0  0  0  0  0
   -6.8469    2.7264    0.1727 C   0  0  0  0  0  0  0  0  0  0  0  0
   -5.5202    2.4497    0.4018 C   0  0  0  0  0  0  0  0  0  0  0  0
   -2.7907    0.1539    0.0270 C   0  0  0  0  0  0  0  0  0  0  0  0
   -3.4979   -0.9813    0.2932 C   0  0  0  0  0  0  0  0  0  0  0  0
   -4.9435   -1.0458    0.4932 C   0  0  0  0  0  0  0  0  0  0  0  0
   -5.7643   -1.8530   -0.2624 C   0  0  0  0  0  0  0  0  0  0  0  0
   -7.0829   -1.9880    0.0571 C   0  0  0  0  0  0  0  0  0  0  0  0
   -7.6235   -1.3109    1.1548 C   0  0  0  0  0  0  0  0  0  0  0  0
   -6.8129   -0.5045    1.9131 C   0  0  0  0  0  0  0  0  0  0  0  0
   -5.4928   -0.3923    1.5629 C   0  0  0  0  0  0  0  0  0  0  0  0
   -2.8186   -2.1851    0.5419 C   0  0  0  0  0  0  0  0  0  0  0  0
   -1.4688   -2.2447    0.5291 C   0  0  0  0  0  0  0  0  0  0  0  0
   -0.7346   -1.1198    0.2728 C   0  0  0  0  0  0  0  0  0  0  0  0
    0.6503   -1.1986    0.2700 C   0  0  0  0  0  0  0  0  0  0  0  0
    1.2579   -2.4052    0.5182 C   0  0  0  0  0  0  0  0  0  0  0  0
    2.6211   -2.4532    0.5037 C   0  0  0  0  0  0  0  0  0  0  0  0
    3.4041   -1.3115    0.2460 C   0  0  0  0  0  0  0  0  0  0  0  0
    4.8179   -1.6266    0.1533 C   0  0  0  0  0  0  0  0  0  0  0  0
    5.4719   -2.1375    1.2512 C   0  0  0  0  0  0  0  0  0  0  0  0
    6.8016   -2.5685    1.1434 C   0  0  0  0  0  0  0  0  0  0  0  0
    7.4646   -2.4821   -0.0707 C   0  0  0  0  0  0  0  0  0  0  0  0
    6.8007   -1.9708   -1.1575 C   0  0  0  0  0  0  0  0  0  0  0  0
    5.4927   -1.5539   -1.0246 C   0  0  0  0  0  0  0  0  0  0  0  0
    2.7969   -0.1160    0.0071 C   0  0  0  0  0  0  0  0  0  0  0  0
    1.3972   -0.0588    0.0142 C   0  0  0  0  0  0  0  0  0  0  0  0
   -1.3601    0.0806    0.0229 C   0  0  0  0  0  0  0  0  0  0  0  0
    5.6410    1.5596   -1.2613 C   0  0  0  0  0  0  0  0  0  0  0  0
    6.9873    1.7936   -1.1816 C   0  0  0  0  0  0  0  0  0  0  0  0
    8.7090    1.7911    0.0964 H   0  0  0  0  0  0  0  0  0  0  0  0
    7.4383    1.0354    2.1089 H   0  0  0  0  0  0  0  0  0  0  0  0
    5.0760    0.6428    1.9205 H   0  0  0  0  0  0  0  0  0  0  0  0
    3.3928    3.1202   -0.6990 H   0  0  0  0  0  0  0  0  0  0  0  0
    1.0061    3.2470   -0.6977 H   0  0  0  0  0  0  0  0  0  0  0  0
   -0.6646    3.3019   -0.6808 H   0  0  0  0  0  0  0  0  0  0  0  0
   -3.0818    3.3863   -0.6703 H   0  0  0  0  0  0  0  0  0  0  0  0
   -4.9972    0.2634   -2.0808 H   0  0  0  0  0  0  0  0  0  0  0  0
   -7.3640    0.7433   -2.5008 H   0  0  0  0  0  0  0  0  0  0  0  0
   -8.5619    2.3317   -1.0533 H   0  0  0  0  0  0  0  0  0  0  0  0
   -7.4181    3.4194    0.7832 H   0  0  0  0  0  0  0  0  0  0  0  0
   -4.9874    2.9190    1.2111 H   0  0  0  0  0  0  0  0  0  0  0  0
   -5.3581   -2.3738   -1.1030 H   0  0  0  0  0  0  0  0  0  0  0  0
   -7.7856   -2.6176   -0.5085 H   0  0  0  0  0  0  0  0  0  0  0  0
   -8.6626   -1.3982    1.4319 H   0  0  0  0  0  0  0  0  0  0  0  0
   -7.1987    0.0434    2.7819 H   0  0  0  0  0  0  0  0  0  0  0  0
   -4.8751    0.2620    2.1933 H   0  0  0  0  0  0  0  0  0  0  0  0
   -3.4276   -3.0662    0.7440 H   0  0  0  0  0  0  0  0  0  0  0  0
   -1.0012   -3.1849    0.7225 H   0  0  0  0  0  0  0  0  0  0  0  0
    0.6746   -3.2878    0.7187 H   0  0  0  0  0  0  0  0  0  0  0  0
    3.1246   -3.4033    0.6982 H   0  0  0  0  0  0  0  0  0  0  0  0
    4.9488   -2.1983    2.1803 H   0  0  0  0  0  0  0  0  0  0  0  0
    7.3281   -2.9719    1.9967 H   0  0  0  0  0  0  0  0  0  0  0  0
    8.5107   -2.8196   -0.1610 H   0  0  0  0  0  0  0  0  0  0  0  0
    7.3195   -1.9059   -2.0970 H   0  0  0  0  0  0  0  0  0  0  0  0
    5.0224   -1.1655   -1.9210 H   0  0  0  0  0  0  0  0  0  0  0  0
    5.1049    1.6933   -2.1780 H   0  0  0  0  0  0  0  0  0  0  0  0
    7.5722    2.1229   -2.0355 H   0  0  0  0  0  0  0  0  0  0  0  0
  1  2  2  0
  2  3  1  0
  3  4  2  0
  4  5  1  0
  5  6  2  0
  6  7  1  0
  7  8  2  0
  8  9  1  0
  9 10  2  0
 10 11  1  0
 11 12  2  0
 12 13  1  0
 13 14  2  0
 14 15  1  0
 15 16  2  0
 16 17  1  0
 17 18  2  0
 12 19  1  0
 19 20  2  0
 20 21  1  0
 21 22  2  0
 22 23  1  0
 23 24  2  0
 24 25  1  0
 25 26  2  0
 20 27  1  0
 27 28  2  0
 28 29  1  0
 29 30  1  0
 30 31  1  0
 31 32  2  0
 32 33  1  0
 33 34  1  0
 34 35  2  0
 35 36  1  0
 36 37  2  0
 37 38  1  0
 38 39  2  0
 33 40  2  0
 40 41  1  0
 29 42  2  0
  4 43  1  0
 43 44  2  0
 44  1  1  0
 40  5  1  0
 41  8  1  0
 42  9  1  0
 18 13  1  0
 42 19  1  0
 26 21  1  0
 41 30  2  0
 39 34  1  0
  1 45  1  0
  2 46  1  0
  3 47  1  0
  6 48  1  0
  7 49  1  0
 10 50  1  0
 11 51  1  0
 14 52  1  0
 15 53  1  0
 16 54  1  0
 17 55  1  0
 18 56  1  0
 22 57  1  0
 23 58  1  0
 24 59  1  0
 25 60  1  0
 26 61  1  0
 27 62  1  0
 28 63  1  0
 31 64  1  0
 32 65  1  0
 35 66  1  0
 36 67  1  0
 37 68  1  0
 38 69  1  0
 39 70  1  0
 43 71  1  0
 44 72  1  0
M  END
