
     RDKit          3D

103111  0  0  0  0  0  0  0  0999 V2000
    3.0842   -5.1678   -0.4205 C   0  0  0  0  0  0  0  0  0  0  0  0
    2.9448   -3.6973   -0.0975 C   0  0  0  0  0  0  0  0  0  0  0  0
    1.6218   -3.2560    0.0811 C   0  0  0  0  0  0  0  0  0  0  0  0
    0.9309   -3.6538   -1.3364 C   0  0  0  0  0  0  0  0  0  0  0  0
    1.7145   -2.8984   -2.3611 C   0  0  0  0  0  0  0  0  0  0  0  0
    0.8159   -4.1410    0.9810 C   0  0  0  0  0  0  0  0  0  0  0  0
    1.1165   -5.3438    1.6192 C   0  0  0  0  0  0  0  0  0  0  0  0
    0.0545   -6.0493    2.1424 C   0  0  0  0  0  0  0  0  0  0  0  0
   -1.2321   -5.6019    2.0477 C   0  0  0  0  0  0  0  0  0  0  0  0
   -1.4624   -4.3812    1.4000 C   0  0  0  0  0  0  0  0  0  0  0  0
   -0.4471   -3.6315    0.8649 C   0  0  0  0  0  0  0  0  0  0  0  0
   -0.3028   -2.2234    0.3766 C   0  0  0  0  0  0  0  0  0  0  0  0
    1.0511   -1.9417    0.2200 C   0  0  0  0  0  0  0  0  0  0  0  0
    1.3727   -0.5958    0.0277 C   0  0  0  0  0  0  0  0  0  0  0  0
    0.4052    0.4214   -0.0293 C   0  0  0  0  0  0  0  0  0  0  0  0
   -0.9397    0.0443    0.1198 C   0  0  0  0  0  0  0  0  0  0  0  0
   -1.3107   -1.2507    0.3255 C   0  0  0  0  0  0  0  0  0  0  0  0
   -2.7620   -1.3353    0.4719 C   0  0  0  0  0  0  0  0  0  0  0  0
   -3.4900   -2.1348   -0.5584 C   0  0  0  0  0  0  0  0  0  0  0  0
   -3.2840   -1.5371   -1.9556 C   0  0  0  0  0  0  0  0  0  0  0  0
   -3.2772   -1.4427    1.8893 C   0  0  0  0  0  0  0  0  0  0  0  0
   -2.8488   -0.1842    2.6827 C   0  0  0  0  0  0  0  0  0  0  0  0
   -3.2141    0.0866    0.1381 C   0  0  0  0  0  0  0  0  0  0  0  0
   -4.5238    0.5293    0.0346 C   0  0  0  0  0  0  0  0  0  0  0  0
   -4.7957    1.8518   -0.2220 C   0  0  0  0  0  0  0  0  0  0  0  0
   -6.1547    2.3949   -0.3432 C   0  0  0  0  0  0  0  0  0  0  0  0
   -7.1900    1.6131   -0.2041 C   0  0  0  0  0  0  0  0  0  0  0  0
   -8.5386    2.2158   -0.3368 C   0  0  0  0  0  0  0  0  0  0  0  0
   -8.8966    3.5057   -0.5925 C   0  0  0  0  0  0  0  0  0  0  0  0
  -10.2032    3.7887   -0.6611 C   0  0  0  0  0  0  0  0  0  0  0  0
  -11.0841    2.7607   -0.4692 C   0  0  0  0  0  0  0  0  0  0  0  0
  -10.0610    1.4263   -0.1981 S   0  0  0  0  0  0  0  0  0  0  0  0
   -3.6972    2.6682   -0.3620 C   0  0  0  0  0  0  0  0  0  0  0  0
   -2.3881    2.2071   -0.2558 C   0  0  0  0  0  0  0  0  0  0  0  0
   -2.1302    0.8830   -0.0001 C   0  0  0  0  0  0  0  0  0  0  0  0
    1.0500    1.7358   -0.2101 C   0  0  0  0  0  0  0  0  0  0  0  0
    0.9069    2.6931    0.9395 C   0  0  0  0  0  0  0  0  0  0  0  0
    1.5357    2.0960    2.1938 C   0  0  0  0  0  0  0  0  0  0  0  0
    0.8946    2.3534   -1.5739 C   0  0  0  0  0  0  0  0  0  0  0  0
    1.5235    1.4190   -2.6361 C   0  0  0  0  0  0  0  0  0  0  0  0
    2.5404    1.3763   -0.2429 C   0  0  0  0  0  0  0  0  0  0  0  0
    3.6232    2.2063   -0.3657 C   0  0  0  0  0  0  0  0  0  0  0  0
    4.9075    1.7161   -0.3498 C   0  0  0  0  0  0  0  0  0  0  0  0
    6.0247    2.6398   -0.4854 C   0  0  0  0  0  0  0  0  0  0  0  0
    7.2704    2.2896   -0.4835 C   0  0  0  0  0  0  0  0  0  0  0  0
    8.3185    3.2996   -0.6266 C   0  0  0  0  0  0  0  0  0  0  0  0
    8.2039    4.6551   -0.7737 C   0  0  0  0  0  0  0  0  0  0  0  0
    9.3293    5.3707   -0.8863 C   0  0  0  0  0  0  0  0  0  0  0  0
   10.5172    4.6858   -0.8453 C   0  0  0  0  0  0  0  0  0  0  0  0
   10.0231    3.0706   -0.6514 S   0  0  0  0  0  0  0  0  0  0  0  0
    5.0449    0.3683   -0.2053 C   0  0  0  0  0  0  0  0  0  0  0  0
    3.9552   -0.5056   -0.0770 C   0  0  0  0  0  0  0  0  0  0  0  0
    2.6860    0.0315   -0.1009 C   0  0  0  0  0  0  0  0  0  0  0  0
    3.5498   -5.3153   -1.4667 H   0  0  0  0  0  0  0  0  0  0  0  0
    2.1716   -5.7490   -0.5053 H   0  0  0  0  0  0  0  0  0  0  0  0
    3.8837   -5.6753    0.2034 H   0  0  0  0  0  0  0  0  0  0  0  0
    3.3960   -3.2163   -1.0258 H   0  0  0  0  0  0  0  0  0  0  0  0
    3.6197   -3.5614    0.7960 H   0  0  0  0  0  0  0  0  0  0  0  0
   -0.0815   -3.2137   -1.3018 H   0  0  0  0  0  0  0  0  0  0  0  0
    0.9410   -4.7249   -1.4309 H   0  0  0  0  0  0  0  0  0  0  0  0
    1.0398   -2.5451   -3.2078 H   0  0  0  0  0  0  0  0  0  0  0  0
    2.1939   -1.9708   -2.0143 H   0  0  0  0  0  0  0  0  0  0  0  0
    2.5392   -3.5268   -2.8083 H   0  0  0  0  0  0  0  0  0  0  0  0
    2.1311   -5.6789    1.7304 H   0  0  0  0  0  0  0  0  0  0  0  0
    0.2524   -6.9980    2.6493 H   0  0  0  0  0  0  0  0  0  0  0  0
   -2.0864   -6.1583    2.4569 H   0  0  0  0  0  0  0  0  0  0  0  0
   -2.4663   -4.0755    1.3295 H   0  0  0  0  0  0  0  0  0  0  0  0
   -3.1216   -3.1677   -0.5732 H   0  0  0  0  0  0  0  0  0  0  0  0
   -4.5617   -2.1404   -0.3157 H   0  0  0  0  0  0  0  0  0  0  0  0
   -3.3201   -2.3828   -2.6693 H   0  0  0  0  0  0  0  0  0  0  0  0
   -2.3072   -1.0487   -2.0551 H   0  0  0  0  0  0  0  0  0  0  0  0
   -4.1452   -0.8600   -2.2145 H   0  0  0  0  0  0  0  0  0  0  0  0
   -2.9612   -2.2616    2.4913 H   0  0  0  0  0  0  0  0  0  0  0  0
   -4.3798   -1.3850    1.8253 H   0  0  0  0  0  0  0  0  0  0  0  0
   -1.8248    0.1108    2.4299 H   0  0  0  0  0  0  0  0  0  0  0  0
   -2.8848   -0.3926    3.7732 H   0  0  0  0  0  0  0  0  0  0  0  0
   -3.5377    0.6474    2.4821 H   0  0  0  0  0  0  0  0  0  0  0  0
   -5.3228   -0.1814    0.1586 H   0  0  0  0  0  0  0  0  0  0  0  0
   -6.3039    3.4557   -0.5505 H   0  0  0  0  0  0  0  0  0  0  0  0
   -7.1457    0.5481    0.0027 H   0  0  0  0  0  0  0  0  0  0  0  0
   -8.1022    4.2748   -0.7348 H   0  0  0  0  0  0  0  0  0  0  0  0
  -10.5926    4.8120   -0.8650 H   0  0  0  0  0  0  0  0  0  0  0  0
  -12.1901    2.8195   -0.4919 H   0  0  0  0  0  0  0  0  0  0  0  0
   -3.8810    3.7226   -0.5654 H   0  0  0  0  0  0  0  0  0  0  0  0
   -1.6224    2.9052   -0.3786 H   0  0  0  0  0  0  0  0  0  0  0  0
   -0.0854    3.0388    1.1027 H   0  0  0  0  0  0  0  0  0  0  0  0
    1.5463    3.5874    0.7021 H   0  0  0  0  0  0  0  0  0  0  0  0
    1.2018    2.7341    3.0391 H   0  0  0  0  0  0  0  0  0  0  0  0
    1.1941    1.0770    2.3854 H   0  0  0  0  0  0  0  0  0  0  0  0
    2.6205    2.0995    2.0457 H   0  0  0  0  0  0  0  0  0  0  0  0
   -0.0784    2.6813   -1.8836 H   0  0  0  0  0  0  0  0  0  0  0  0
    1.5559    3.2718   -1.6479 H   0  0  0  0  0  0  0  0  0  0  0  0
    2.5955    1.5914   -2.7335 H   0  0  0  0  0  0  0  0  0  0  0  0
    1.0196    1.6784   -3.5886 H   0  0  0  0  0  0  0  0  0  0  0  0
    1.2649    0.3595   -2.4098 H   0  0  0  0  0  0  0  0  0  0  0  0
    3.4418    3.2771   -0.4777 H   0  0  0  0  0  0  0  0  0  0  0  0
    5.8025    3.6993   -0.5963 H   0  0  0  0  0  0  0  0  0  0  0  0
    7.5502    1.2599   -0.3776 H   0  0  0  0  0  0  0  0  0  0  0  0
    7.1900    5.1285   -0.7963 H   0  0  0  0  0  0  0  0  0  0  0  0
    9.3194    6.4837   -1.0098 H   0  0  0  0  0  0  0  0  0  0  0  0
   11.5265    5.1320   -0.9246 H   0  0  0  0  0  0  0  0  0  0  0  0
    6.0508   -0.0827   -0.1851 H   0  0  0  0  0  0  0  0  0  0  0  0
    4.1718   -1.5141    0.0624 H   0  0  0  0  0  0  0  0  0  0  0  0
  1  2  1  0
  2  3  1  0
  3  4  1  0
  4  5  1  0
  3  6  1  0
  6  7  2  0
  7  8  1  0
  8  9  2  0
  9 10  1  0
 10 11  2  0
 11 12  1  0
 12 13  2  0
 13 14  1  0
 14 15  2  0
 15 16  1  0
 16 17  2  0
 17 18  1  0
 18 19  1  0
 19 20  1  0
 18 21  1  0
 21 22  1  0
 18 23  1  0
 23 24  2  0
 24 25  1  0
 25 26  1  0
 26 27  2  0
 27 28  1  0
 28 29  2  0
 29 30  1  0
 30 31  2  0
 31 32  1  0
 25 33  2  0
 33 34  1  0
 34 35  2  0
 15 36  1  0
 36 37  1  0
 37 38  1  0
 36 39  1  0
 39 40  1  0
 36 41  1  0
 41 42  2  0
 42 43  1  0
 43 44  1  0
 44 45  2  0
 45 46  1  0
 46 47  2  0
 47 48  1  0
 48 49  2  0
 49 50  1  0
 43 51  2  0
 51 52  1  0
 52 53  2  0
 13  3  1  0
 53 14  1  0
 11  6  1  0
 17 12  1  0
 35 23  1  0
 53 41  1  0
 35 16  1  0
 50 46  1  0
 32 28  1  0
  1 54  1  0
  1 55  1  0
  1 56  1  0
  2 57  1  0
  2 58  1  0
  4 59  1  0
  4 60  1  0
  5 61  1  0
  5 62  1  0
  5 63  1  0
  7 64  1  0
  8 65  1  0
  9 66  1  0
 10 67  1  0
 19 68  1  0
 19 69  1  0
 20 70  1  0
 20 71  1  0
 20 72  1  0
 21 73  1  0
 21 74  1  0
 22 75  1  0
 22 76  1  0
 22 77  1  0
 24 78  1  0
 26 79  1  0
 27 80  1  0
 29 81  1  0
 30 82  1  0
 31 83  1  0
 33 84  1  0
 34 85  1  0
 37 86  1  0
 37 87  1  0
 38 88  1  0
 38 89  1  0
 38 90  1  0
 39 91  1  0
 39 92  1  0
 40 93  1  0
 40 94  1  0
 40 95  1  0
 42 96  1  0
 44 97  1  0
 45 98  1  0
 47 99  1  0
 48100  1  0
 49101  1  0
 51102  1  0
 52103  1  0
M  END
