
     RDKit          3D

 38 41  0  0  0  0  0  0  0  0999 V2000
   -9.2367   -1.1297    1.2805 O   0  0  0  0  0  0  0  0  0  0  0  0
   -8.1504   -0.5730    0.9509 C   0  0  0  0  0  0  0  0  0  0  0  0
   -8.0999    0.6660    0.4297 N   0  0  0  0  0  0  0  0  0  0  0  0
   -6.7963    0.8845    0.2216 N   0  0  0  0  0  0  0  0  0  0  0  0
   -6.0768   -0.1756    0.5991 C   0  0  0  0  0  0  0  0  0  0  0  0
   -4.6319   -0.2716    0.5094 C   0  0  0  0  0  0  0  0  0  0  0  0
   -3.8733    0.7626    0.0101 C   0  0  0  0  0  0  0  0  0  0  0  0
   -2.5044    0.7177   -0.0940 C   0  0  0  0  0  0  0  0  0  0  0  0
   -1.8527   -0.4137    0.3192 C   0  0  0  0  0  0  0  0  0  0  0  0
   -0.3918   -0.5459    0.2432 C   0  0  0  0  0  0  0  0  0  0  0  0
    0.4038    0.3816   -0.2151 C   0  0  0  0  0  0  0  0  0  0  0  0
    1.8490    0.2433   -0.2872 C   0  0  0  0  0  0  0  0  0  0  0  0
    2.5594    1.3417   -0.8091 C   0  0  0  0  0  0  0  0  0  0  0  0
    3.9247    1.2434   -0.8908 C   0  0  0  0  0  0  0  0  0  0  0  0
    4.6122    0.1126   -0.4810 C   0  0  0  0  0  0  0  0  0  0  0  0
    6.0721    0.0770   -0.5973 C   0  0  0  0  0  0  0  0  0  0  0  0
    6.8856    1.0370   -1.0709 N   0  0  0  0  0  0  0  0  0  0  0  0
    8.1505    0.6554   -1.0254 N   0  0  0  0  0  0  0  0  0  0  0  0
    8.1232   -0.5960   -0.5008 C   0  0  0  0  0  0  0  0  0  0  0  0
    9.1701   -1.2622   -0.3169 O   0  0  0  0  0  0  0  0  0  0  0  0
    6.8746   -0.9148   -0.2555 O   0  0  0  0  0  0  0  0  0  0  0  0
    3.8940   -0.9429    0.0238 C   0  0  0  0  0  0  0  0  0  0  0  0
    2.5231   -0.8807    0.1210 C   0  0  0  0  0  0  0  0  0  0  0  0
   -2.5867   -1.4829    0.8309 C   0  0  0  0  0  0  0  0  0  0  0  0
   -3.9490   -1.4022    0.9195 C   0  0  0  0  0  0  0  0  0  0  0  0
   -6.9294   -1.0585    1.0437 O   0  0  0  0  0  0  0  0  0  0  0  0
   -8.8839    1.3259    0.2249 H   0  0  0  0  0  0  0  0  0  0  0  0
   -4.3805    1.6582   -0.3178 H   0  0  0  0  0  0  0  0  0  0  0  0
   -2.0001    1.5789   -0.4984 H   0  0  0  0  0  0  0  0  0  0  0  0
    0.0599   -1.4743    0.5898 H   0  0  0  0  0  0  0  0  0  0  0  0
   -0.0445    1.2978   -0.5569 H   0  0  0  0  0  0  0  0  0  0  0  0
    2.0492    2.2316   -1.1344 H   0  0  0  0  0  0  0  0  0  0  0  0
    4.4701    2.0886   -1.2922 H   0  0  0  0  0  0  0  0  0  0  0  0
    9.0145    1.1881   -1.3253 H   0  0  0  0  0  0  0  0  0  0  0  0
    4.4169   -1.8466    0.3537 H   0  0  0  0  0  0  0  0  0  0  0  0
    1.9793   -1.7147    0.5177 H   0  0  0  0  0  0  0  0  0  0  0  0
   -2.0911   -2.3968    1.1675 H   0  0  0  0  0  0  0  0  0  0  0  0
   -4.5528   -2.2150    1.3126 H   0  0  0  0  0  0  0  0  0  0  0  0
  1  2  2  0
  2  3  1  0
  3  4  1  0
  4  5  2  0
  5  6  1  0
  6  7  2  0
  7  8  1  0
  8  9  2  0
  9 10  1  0
 10 11  2  0
 11 12  1  0
 12 13  2  0
 13 14  1  0
 14 15  2  0
 15 16  1  0
 16 17  2  0
 17 18  1  0
 18 19  1  0
 19 20  2  0
 19 21  1  0
 15 22  1  0
 22 23  2  0
  9 24  1  0
 24 25  2  0
  5 26  1  0
 26  2  1  0
 25  6  1  0
 23 12  1  0
 21 16  1  0
  3 27  1  0
  7 28  1  0
  8 29  1  0
 10 30  1  0
 11 31  1  0
 13 32  1  0
 14 33  1  0
 18 34  1  0
 22 35  1  0
 23 36  1  0
 24 37  1  0
 25 38  1  0
M  END
