
     RDKit          3D

 48 50  0  0  0  0  0  0  0  0999 V2000
    6.4862   -1.4181   -0.6379 C   0  0  0  0  0  0  0  0  0  0  0  0
    5.5924   -0.4362   -1.3673 C   0  0  0  0  0  0  0  0  0  0  0  0
    4.7529    0.2902   -0.4259 N   0  0  0  0  0  0  0  0  0  0  0  0
    5.4215    1.2174    0.4631 C   0  0  0  0  0  0  0  0  0  0  0  0
    4.4635    1.9275    1.3817 C   0  0  0  0  0  0  0  0  0  0  0  0
    3.3481    0.1537   -0.3335 C   0  0  0  0  0  0  0  0  0  0  0  0
    2.7816   -0.9437    0.3045 C   0  0  0  0  0  0  0  0  0  0  0  0
    1.4074   -1.0865    0.4215 C   0  0  0  0  0  0  0  0  0  0  0  0
    0.5778   -0.1282   -0.1006 C   0  0  0  0  0  0  0  0  0  0  0  0
   -0.8764   -0.2288   -0.0036 C   0  0  0  0  0  0  0  0  0  0  0  0
   -1.6349   -1.2258    0.5587 C   0  0  0  0  0  0  0  0  0  0  0  0
   -2.9667   -1.0903    0.5261 C   0  0  0  0  0  0  0  0  0  0  0  0
   -3.4711    0.0322   -0.0653 C   0  0  0  0  0  0  0  0  0  0  0  0
   -2.0619    0.8692   -0.5608 S   0  0  0  0  0  0  0  0  0  0  0  0
   -4.8170    0.3129   -0.1748 C   0  0  0  0  0  0  0  0  0  0  0  0
   -5.1883    1.5494   -0.8269 C   0  0  0  0  0  0  0  0  0  0  0  0
   -4.3590    2.3362   -1.3168 O   0  0  0  0  0  0  0  0  0  0  0  0
   -6.5435    1.9177   -0.9323 O   0  0  0  0  0  0  0  0  0  0  0  0
   -6.9232    3.1264   -1.5658 C   0  0  0  0  0  0  0  0  0  0  0  0
   -5.7503   -0.5660    0.3283 C   0  0  0  0  0  0  0  0  0  0  0  0
   -5.2105   -1.6937    0.9201 C   0  0  0  0  0  0  0  0  0  0  0  0
   -6.0328   -2.5235    1.3922 O   0  0  0  0  0  0  0  0  0  0  0  0
   -3.9052   -1.9618    1.0248 N   0  0  0  0  0  0  0  0  0  0  0  0
   -3.5115   -3.2084    1.6884 C   0  0  0  0  0  0  0  0  0  0  0  0
    1.1328    0.9556   -0.7310 C   0  0  0  0  0  0  0  0  0  0  0  0
    2.5129    1.1025   -0.8513 C   0  0  0  0  0  0  0  0  0  0  0  0
    6.0828   -1.6851    0.3611 H   0  0  0  0  0  0  0  0  0  0  0  0
    7.5105   -1.0662   -0.4805 H   0  0  0  0  0  0  0  0  0  0  0  0
    6.5156   -2.3527   -1.2277 H   0  0  0  0  0  0  0  0  0  0  0  0
    6.2248    0.2288   -1.9838 H   0  0  0  0  0  0  0  0  0  0  0  0
    4.9541   -0.9934   -2.1032 H   0  0  0  0  0  0  0  0  0  0  0  0
    5.8830    2.0083   -0.1925 H   0  0  0  0  0  0  0  0  0  0  0  0
    6.2536    0.7450    1.0267 H   0  0  0  0  0  0  0  0  0  0  0  0
    3.8867    1.2431    2.0192 H   0  0  0  0  0  0  0  0  0  0  0  0
    5.1051    2.5873    2.0317 H   0  0  0  0  0  0  0  0  0  0  0  0
    3.8107    2.6122    0.7789 H   0  0  0  0  0  0  0  0  0  0  0  0
    3.4699   -1.6729    0.7007 H   0  0  0  0  0  0  0  0  0  0  0  0
    0.9901   -1.9545    0.9248 H   0  0  0  0  0  0  0  0  0  0  0  0
   -1.0890   -2.0871    1.0077 H   0  0  0  0  0  0  0  0  0  0  0  0
   -7.9673    2.9829   -1.9323 H   0  0  0  0  0  0  0  0  0  0  0  0
   -6.9191    3.9978   -0.8914 H   0  0  0  0  0  0  0  0  0  0  0  0
   -6.3113    3.3377   -2.4595 H   0  0  0  0  0  0  0  0  0  0  0  0
   -6.7786   -0.3361    0.2364 H   0  0  0  0  0  0  0  0  0  0  0  0
   -3.4467   -3.0627    2.7864 H   0  0  0  0  0  0  0  0  0  0  0  0
   -2.5484   -3.5868    1.3430 H   0  0  0  0  0  0  0  0  0  0  0  0
   -4.3119   -3.9519    1.4629 H   0  0  0  0  0  0  0  0  0  0  0  0
    0.5377    1.7608   -1.1720 H   0  0  0  0  0  0  0  0  0  0  0  0
    2.9232    1.9655   -1.3523 H   0  0  0  0  0  0  0  0  0  0  0  0
  1  2  1  0
  2  3  1  0
  3  4  1  0
  4  5  1  0
  3  6  1  0
  6  7  2  0
  7  8  1  0
  8  9  2  0
  9 10  1  0
 10 11  2  0
 11 12  1  0
 12 13  2  0
 13 14  1  0
 13 15  1  0
 15 16  1  0
 16 17  2  0
 16 18  1  0
 18 19  1  0
 15 20  2  0
 20 21  1  0
 21 22  2  0
 21 23  1  0
 23 24  1  0
  9 25  1  0
 25 26  2  0
 26  6  1  0
 14 10  1  0
 23 12  1  0
  1 27  1  0
  1 28  1  0
  1 29  1  0
  2 30  1  0
  2 31  1  0
  4 32  1  0
  4 33  1  0
  5 34  1  0
  5 35  1  0
  5 36  1  0
  7 37  1  0
  8 38  1  0
 11 39  1  0
 19 40  1  0
 19 41  1  0
 19 42  1  0
 20 43  1  0
 24 44  1  0
 24 45  1  0
 24 46  1  0
 25 47  1  0
 26 48  1  0
M  END
