
     RDKit          3D

 38 40  0  0  0  0  0  0  0  0999 V2000
   -6.2052   -0.4457    0.8273 C   0  0  0  0  0  0  0  0  0  0  0  0
   -5.2879    0.4331    0.1371 N   0  0  0  0  0  0  0  0  0  0  0  0
   -5.8151    1.7005   -0.3169 C   0  0  0  0  0  0  0  0  0  0  0  0
   -3.9287    0.0533   -0.0778 C   0  0  0  0  0  0  0  0  0  0  0  0
   -3.0628    0.8612   -0.7328 C   0  0  0  0  0  0  0  0  0  0  0  0
   -1.7298    0.5222   -0.9600 C   0  0  0  0  0  0  0  0  0  0  0  0
   -1.3030   -0.6914   -0.4861 C   0  0  0  0  0  0  0  0  0  0  0  0
    0.0689   -1.1270   -0.6402 C   0  0  0  0  0  0  0  0  0  0  0  0
    1.1277   -0.4639   -0.2504 C   0  0  0  0  0  0  0  0  0  0  0  0
    2.5100   -0.8365   -0.3792 N   0  0  0  0  0  0  0  0  0  0  0  0
    3.2513    0.0563    0.1650 C   0  0  0  0  0  0  0  0  0  0  0  0
    4.7223   -0.0383    0.1971 C   0  0  0  0  0  0  0  0  0  0  0  0
    5.4880    0.9361    0.7880 C   0  0  0  0  0  0  0  0  0  0  0  0
    6.8621    0.8602    0.8272 C   0  0  0  0  0  0  0  0  0  0  0  0
    7.5154   -0.2216    0.2605 C   0  0  0  0  0  0  0  0  0  0  0  0
    6.7430   -1.1930   -0.3291 C   0  0  0  0  0  0  0  0  0  0  0  0
    5.3781   -1.1111   -0.3644 C   0  0  0  0  0  0  0  0  0  0  0  0
    2.4891    1.0837    0.6978 O   0  0  0  0  0  0  0  0  0  0  0  0
    1.1378    0.7989    0.4604 C   0  0  0  0  0  0  0  0  0  0  0  0
    0.1408    1.4776    0.7878 O   0  0  0  0  0  0  0  0  0  0  0  0
   -2.1815   -1.5174    0.1811 C   0  0  0  0  0  0  0  0  0  0  0  0
   -3.5073   -1.1676    0.4001 C   0  0  0  0  0  0  0  0  0  0  0  0
   -5.8892   -0.4764    1.9122 H   0  0  0  0  0  0  0  0  0  0  0  0
   -7.2092   -0.0305    0.7945 H   0  0  0  0  0  0  0  0  0  0  0  0
   -6.1364   -1.4933    0.4788 H   0  0  0  0  0  0  0  0  0  0  0  0
   -6.6243    2.0078    0.3977 H   0  0  0  0  0  0  0  0  0  0  0  0
   -6.3244    1.6234   -1.3100 H   0  0  0  0  0  0  0  0  0  0  0  0
   -5.0850    2.5290   -0.2764 H   0  0  0  0  0  0  0  0  0  0  0  0
   -3.3767    1.8206   -1.1144 H   0  0  0  0  0  0  0  0  0  0  0  0
   -1.0796    1.2145   -1.5205 H   0  0  0  0  0  0  0  0  0  0  0  0
    0.2966   -2.1006   -1.1254 H   0  0  0  0  0  0  0  0  0  0  0  0
    4.9495    1.7793    1.2280 H   0  0  0  0  0  0  0  0  0  0  0  0
    7.4229    1.6565    1.3058 H   0  0  0  0  0  0  0  0  0  0  0  0
    8.5919   -0.2576    0.3042 H   0  0  0  0  0  0  0  0  0  0  0  0
    7.2761   -2.0411   -0.7721 H   0  0  0  0  0  0  0  0  0  0  0  0
    4.7861   -1.8973   -0.8396 H   0  0  0  0  0  0  0  0  0  0  0  0
   -1.8288   -2.4743    0.5488 H   0  0  0  0  0  0  0  0  0  0  0  0
   -4.1828   -1.8297    0.9269 H   0  0  0  0  0  0  0  0  0  0  0  0
  1  2  1  0
  2  3  1  0
  2  4  1  0
  4  5  2  0
  5  6  1  0
  6  7  2  0
  7  8  1  0
  8  9  2  0
  9 10  1  0
 10 11  2  0
 11 12  1  0
 12 13  2  0
 13 14  1  0
 14 15  2  0
 15 16  1  0
 16 17  2  0
 11 18  1  0
 18 19  1  0
 19 20  2  0
  7 21  1  0
 21 22  2  0
 22  4  1  0
 19  9  1  0
 17 12  1  0
  1 23  1  0
  1 24  1  0
  1 25  1  0
  3 26  1  0
  3 27  1  0
  3 28  1  0
  5 29  1  0
  6 30  1  0
  8 31  1  0
 13 32  1  0
 14 33  1  0
 15 34  1  0
 16 35  1  0
 17 36  1  0
 21 37  1  0
 22 38  1  0
M  END
