
     RDKit          3D

 33 35  0  0  0  0  0  0  0  0999 V2000
   -4.1323    0.1976    0.4652 C   0  0  0  0  0  0  0  0  0  0  0  0
   -3.1659   -0.3368   -0.5106 C   0  0  0  0  0  0  0  0  0  0  0  0
   -1.7358   -0.1482   -0.2365 C   0  0  0  0  0  0  0  0  0  0  0  0
   -1.1658    0.4963    0.7598 C   0  0  0  0  0  0  0  0  0  0  0  0
   -1.7509    1.2376    1.9204 C   0  0  0  0  0  0  0  0  0  0  0  0
    0.2938    0.3406    0.5136 C   0  0  0  0  0  0  0  0  0  0  0  0
    1.2907    0.8075    1.2351 C   0  0  0  0  0  0  0  0  0  0  0  0
    2.6606    0.5438    0.8223 C   0  0  0  0  0  0  0  0  0  0  0  0
    3.8542    0.9237    1.4088 C   0  0  0  0  0  0  0  0  0  0  0  0
    4.9086    0.4391    0.6546 C   0  0  0  0  0  0  0  0  0  0  0  0
    4.3040   -0.2317   -0.3846 C   0  0  0  0  0  0  0  0  0  0  0  0
    2.9505   -0.1660   -0.2796 N   0  0  0  0  0  0  0  0  0  0  0  0
    1.8811   -0.7509   -1.1840 B   0  0  0  0  0  4  0  0  0  0  0  0
    2.0554   -2.1763   -1.3768 F   0  0  0  0  0  0  0  0  0  0  0  0
    2.0215   -0.1109   -2.5038 F   0  0  0  0  0  0  0  0  0  0  0  0
    0.4769   -0.4180   -0.6627 N   0  0  0  0  0  4  0  0  0  0  0  0
   -0.6870   -0.7201   -1.1270 C   0  0  0  0  0  0  0  0  0  0  0  0
   -0.9725   -1.5094   -2.3496 C   0  0  0  0  0  0  0  0  0  0  0  0
   -3.9344    0.0023    1.5243 H   0  0  0  0  0  0  0  0  0  0  0  0
   -5.1600   -0.3016    0.3183 H   0  0  0  0  0  0  0  0  0  0  0  0
   -4.3545    1.2834    0.2738 H   0  0  0  0  0  0  0  0  0  0  0  0
   -3.3359   -1.4585   -0.5610 H   0  0  0  0  0  0  0  0  0  0  0  0
   -3.4278    0.0170   -1.5464 H   0  0  0  0  0  0  0  0  0  0  0  0
   -0.9403    1.9639    2.2514 H   0  0  0  0  0  0  0  0  0  0  0  0
   -2.0676    0.6084    2.7470 H   0  0  0  0  0  0  0  0  0  0  0  0
   -2.5761    1.9078    1.6302 H   0  0  0  0  0  0  0  0  0  0  0  0
    1.1218    1.3839    2.1298 H   0  0  0  0  0  0  0  0  0  0  0  0
    4.0203    1.5068    2.3128 H   0  0  0  0  0  0  0  0  0  0  0  0
    5.9603    0.5740    0.8614 H   0  0  0  0  0  0  0  0  0  0  0  0
    4.8179   -0.7441   -1.1807 H   0  0  0  0  0  0  0  0  0  0  0  0
   -1.8511   -2.1677   -2.0904 H   0  0  0  0  0  0  0  0  0  0  0  0
   -1.2737   -0.8792   -3.2097 H   0  0  0  0  0  0  0  0  0  0  0  0
   -0.0858   -2.1142   -2.6251 H   0  0  0  0  0  0  0  0  0  0  0  0
  1  2  1  0
  2  3  1  0
  3  4  2  0
  4  5  1  0
  4  6  1  0
  6  7  2  0
  7  8  1  0
  8  9  2  0
  9 10  1  0
 10 11  2  0
 11 12  1  0
 12 13  1  0
 13 14  1  0
 13 15  1  0
 13 16  1  0
 16 17  2  0
 17 18  1  0
 17  3  1  0
 16  6  1  0
 12  8  1  0
  1 19  1  0
  1 20  1  0
  1 21  1  0
  2 22  1  0
  2 23  1  0
  5 24  1  0
  5 25  1  0
  5 26  1  0
  7 27  1  0
  9 28  1  0
 10 29  1  0
 11 30  1  0
 18 31  1  0
 18 32  1  0
 18 33  1  0
M  CHG  2  13  -1  16   1
M  END
