
     RDKit          3D

 40 43  0  0  0  0  0  0  0  0999 V2000
    7.2535    0.3222   -0.1160 O   0  0  0  0  0  0  0  0  0  0  0  0
    5.8647    0.2606   -0.1104 C   0  0  0  0  0  0  0  0  0  0  0  0
    5.1187    1.4222   -0.2477 C   0  0  0  0  0  0  0  0  0  0  0  0
    3.7231    1.3503   -0.2406 C   0  0  0  0  0  0  0  0  0  0  0  0
    3.0820    0.1572   -0.1012 C   0  0  0  0  0  0  0  0  0  0  0  0
    1.6262    0.0422   -0.0878 C   0  0  0  0  0  0  0  0  0  0  0  0
    0.9104   -1.0863    0.0399 N   0  0  0  0  0  0  0  0  0  0  0  0
   -0.4174   -0.8067    0.0083 C   0  0  0  0  0  0  0  0  0  0  0  0
   -1.5296   -1.7386    0.1153 C   0  0  0  0  0  0  0  0  0  0  0  0
   -1.7446   -2.3379    1.3523 C   0  0  0  0  0  0  0  0  0  0  0  0
   -2.7664   -3.2350    1.5428 C   0  0  0  0  0  0  0  0  0  0  0  0
   -3.5952   -3.5516    0.4987 C   0  0  0  0  0  0  0  0  0  0  0  0
   -3.3983   -2.9730   -0.7218 C   0  0  0  0  0  0  0  0  0  0  0  0
   -2.3678   -2.0626   -0.9302 C   0  0  0  0  0  0  0  0  0  0  0  0
   -0.5094    0.5486   -0.1450 C   0  0  0  0  0  0  0  0  0  0  0  0
   -1.6934    1.3850   -0.2398 C   0  0  0  0  0  0  0  0  0  0  0  0
   -2.5698    1.3808   -1.2977 C   0  0  0  0  0  0  0  0  0  0  0  0
   -3.6898    2.2142   -1.3102 C   0  0  0  0  0  0  0  0  0  0  0  0
   -3.9450    3.0654   -0.2580 C   0  0  0  0  0  0  0  0  0  0  0  0
   -3.0689    3.0736    0.8056 C   0  0  0  0  0  0  0  0  0  0  0  0
   -1.9673    2.2456    0.8057 C   0  0  0  0  0  0  0  0  0  0  0  0
    0.7570    1.0596   -0.2028 N   0  0  0  0  0  0  0  0  0  0  0  0
    3.8761   -0.9778    0.0331 C   0  0  0  0  0  0  0  0  0  0  0  0
    5.2343   -0.9442    0.0306 C   0  0  0  0  0  0  0  0  0  0  0  0
    7.7062    0.4482    0.7894 H   0  0  0  0  0  0  0  0  0  0  0  0
    5.6373    2.3779   -0.3603 H   0  0  0  0  0  0  0  0  0  0  0  0
    3.1544    2.2761   -0.3500 H   0  0  0  0  0  0  0  0  0  0  0  0
   -1.0850   -2.0924    2.2011 H   0  0  0  0  0  0  0  0  0  0  0  0
   -2.8702   -3.6600    2.5374 H   0  0  0  0  0  0  0  0  0  0  0  0
   -4.3978   -4.2754    0.7032 H   0  0  0  0  0  0  0  0  0  0  0  0
   -4.0835   -3.2533   -1.5313 H   0  0  0  0  0  0  0  0  0  0  0  0
   -2.2265   -1.6185   -1.9051 H   0  0  0  0  0  0  0  0  0  0  0  0
   -2.3940    0.7367   -2.1251 H   0  0  0  0  0  0  0  0  0  0  0  0
   -4.3731    2.2069   -2.1386 H   0  0  0  0  0  0  0  0  0  0  0  0
   -4.8273    3.7007   -0.3019 H   0  0  0  0  0  0  0  0  0  0  0  0
   -3.2843    3.7554    1.6350 H   0  0  0  0  0  0  0  0  0  0  0  0
   -1.2904    2.2718    1.6604 H   0  0  0  0  0  0  0  0  0  0  0  0
    0.9928    2.0721   -0.3173 H   0  0  0  0  0  0  0  0  0  0  0  0
    3.3357   -1.9160    0.1426 H   0  0  0  0  0  0  0  0  0  0  0  0
    5.8222   -1.8440    0.1371 H   0  0  0  0  0  0  0  0  0  0  0  0
  1  2  1  0
  2  3  2  0
  3  4  1  0
  4  5  2  0
  5  6  1  0
  6  7  2  0
  7  8  1  0
  8  9  1  0
  9 10  2  0
 10 11  1  0
 11 12  2  0
 12 13  1  0
 13 14  2  0
  8 15  2  0
 15 16  1  0
 16 17  2  0
 17 18  1  0
 18 19  2  0
 19 20  1  0
 20 21  2  0
 15 22  1  0
  5 23  1  0
 23 24  2  0
 24  2  1  0
 22  6  1  0
 14  9  1  0
 21 16  1  0
  1 25  1  0
  3 26  1  0
  4 27  1  0
 10 28  1  0
 11 29  1  0
 12 30  1  0
 13 31  1  0
 14 32  1  0
 17 33  1  0
 18 34  1  0
 19 35  1  0
 20 36  1  0
 21 37  1  0
 22 38  1  0
 23 39  1  0
 24 40  1  0
M  END
