
     RDKit          3D

 30 31  0  0  0  0  0  0  0  0999 V2000
    1.4069    1.8073   -0.2969 O   0  0  0  0  0  0  0  0  0  0  0  0
    1.7104    0.5912   -0.0543 C   0  0  0  0  0  0  0  0  0  0  0  0
    0.7082   -0.4001   -0.0282 N   0  0  0  0  0  0  0  0  0  0  0  0
   -0.6177    0.0199   -0.2798 N   0  0  0  0  0  0  0  0  0  0  0  0
   -1.6312   -0.6234    0.1827 C   0  0  0  0  0  0  0  0  0  0  0  0
   -2.9781   -0.1154   -0.1281 C   0  0  0  0  0  0  0  0  0  0  0  0
   -3.1440    1.0234   -0.8971 C   0  0  0  0  0  0  0  0  0  0  0  0
   -4.3643    1.5569   -1.2284 C   0  0  0  0  0  0  0  0  0  0  0  0
   -5.5007    0.9182   -0.7660 C   0  0  0  0  0  0  0  0  0  0  0  0
   -5.3781   -0.2198    0.0036 C   0  0  0  0  0  0  0  0  0  0  0  0
   -4.1206   -0.7408    0.3255 C   0  0  0  0  0  0  0  0  0  0  0  0
   -4.0356   -1.8794    1.0964 O   0  0  0  0  0  0  0  0  0  0  0  0
    3.1004    0.2577    0.1917 C   0  0  0  0  0  0  0  0  0  0  0  0
    3.4779   -1.0254    0.4506 C   0  0  0  0  0  0  0  0  0  0  0  0
    4.8006   -1.3499    0.6860 C   0  0  0  0  0  0  0  0  0  0  0  0
    5.7444   -0.3701    0.6589 C   0  0  0  0  0  0  0  0  0  0  0  0
    5.3983    0.9296    0.4016 C   0  0  0  0  0  0  0  0  0  0  0  0
    4.0836    1.2368    0.1702 C   0  0  0  0  0  0  0  0  0  0  0  0
    0.8751   -1.4100    0.1617 H   0  0  0  0  0  0  0  0  0  0  0  0
   -1.4446   -1.4882    0.7652 H   0  0  0  0  0  0  0  0  0  0  0  0
   -2.2618    1.5151   -1.2533 H   0  0  0  0  0  0  0  0  0  0  0  0
   -4.4789    2.4497   -1.8318 H   0  0  0  0  0  0  0  0  0  0  0  0
   -6.4782    1.3095   -1.0069 H   0  0  0  0  0  0  0  0  0  0  0  0
   -6.2408   -0.7427    0.3805 H   0  0  0  0  0  0  0  0  0  0  0  0
   -3.1926   -2.3161    1.3716 H   0  0  0  0  0  0  0  0  0  0  0  0
    2.7645   -1.8426    0.4834 H   0  0  0  0  0  0  0  0  0  0  0  0
    5.0613   -2.3643    0.8855 H   0  0  0  0  0  0  0  0  0  0  0  0
    6.7858   -0.6693    0.8513 H   0  0  0  0  0  0  0  0  0  0  0  0
    6.1816    1.6948    0.3869 H   0  0  0  0  0  0  0  0  0  0  0  0
    3.7678    2.2475   -0.0363 H   0  0  0  0  0  0  0  0  0  0  0  0
  1  2  2  0
  2  3  1  0
  3  4  1  0
  4  5  2  0
  5  6  1  0
  6  7  2  0
  7  8  1  0
  8  9  2  0
  9 10  1  0
 10 11  2  0
 11 12  1  0
  2 13  1  0
 13 14  2  0
 14 15  1  0
 15 16  2  0
 16 17  1  0
 17 18  2  0
 11  6  1  0
 18 13  1  0
  3 19  1  0
  5 20  1  0
  7 21  1  0
  8 22  1  0
  9 23  1  0
 10 24  1  0
 12 25  1  0
 14 26  1  0
 15 27  1  0
 16 28  1  0
 17 29  1  0
 18 30  1  0
M  END
