
     RDKit          3D

 23 25  0  0  0  0  0  0  0  0999 V2000
    3.5789   -1.1089   -0.3021 C   0  0  0  0  0  0  0  0  0  0  0  0
    3.8902    0.2190   -0.1015 C   0  0  0  0  0  0  0  0  0  0  0  0
    2.8435    1.0973    0.0751 C   0  0  0  0  0  0  0  0  0  0  0  0
    1.5280    0.7064    0.0590 C   0  0  0  0  0  0  0  0  0  0  0  0
    1.1888   -0.6074   -0.1385 C   0  0  0  0  0  0  0  0  0  0  0  0
    2.2627   -1.4964   -0.3177 C   0  0  0  0  0  0  0  0  0  0  0  0
   -0.1298   -1.1001   -0.1707 N   0  0  0  0  0  0  0  0  0  0  0  0
   -1.2998   -0.3242   -0.0061 C   0  0  0  0  0  0  0  0  0  0  0  0
   -2.5594   -0.9370   -0.0596 C   0  0  0  0  0  0  0  0  0  0  0  0
   -3.7259   -0.2310    0.0938 C   0  0  0  0  0  0  0  0  0  0  0  0
   -3.7169    1.1262    0.3097 C   0  0  0  0  0  0  0  0  0  0  0  0
   -2.4776    1.7253    0.3617 C   0  0  0  0  0  0  0  0  0  0  0  0
   -1.3098    1.0247    0.2091 C   0  0  0  0  0  0  0  0  0  0  0  0
    0.2313    1.9009    0.2947 S   0  0  0  0  0  0  0  0  0  0  0  0
    4.3726   -1.8263   -0.4442 H   0  0  0  0  0  0  0  0  0  0  0  0
    4.9048    0.5829   -0.0790 H   0  0  0  0  0  0  0  0  0  0  0  0
    3.0355    2.1537    0.2367 H   0  0  0  0  0  0  0  0  0  0  0  0
    2.0040   -2.5491   -0.4763 H   0  0  0  0  0  0  0  0  0  0  0  0
   -0.2680   -2.1317   -0.3302 H   0  0  0  0  0  0  0  0  0  0  0  0
   -2.5947   -2.0231   -0.2314 H   0  0  0  0  0  0  0  0  0  0  0  0
   -4.6976   -0.7188    0.0502 H   0  0  0  0  0  0  0  0  0  0  0  0
   -4.6205    1.7029    0.4333 H   0  0  0  0  0  0  0  0  0  0  0  0
   -2.4403    2.8149    0.5340 H   0  0  0  0  0  0  0  0  0  0  0  0
  1  2  2  0
  2  3  1  0
  3  4  2  0
  4  5  1  0
  5  6  2  0
  5  7  1  0
  7  8  1  0
  8  9  2  0
  9 10  1  0
 10 11  2  0
 11 12  1  0
 12 13  2  0
 13 14  1  0
  6  1  1  0
 13  8  1  0
 14  4  1  0
  1 15  1  0
  2 16  1  0
  3 17  1  0
  6 18  1  0
  7 19  1  0
  9 20  1  0
 10 21  1  0
 11 22  1  0
 12 23  1  0
M  END
