
     RDKit          3D

 64 70  0  0  0  0  0  0  0  0999 V2000
   -8.4995    0.2692    1.0197 C   0  0  0  0  0  0  0  0  0  0  0  0
   -7.6178   -0.8839    0.6161 C   0  0  0  0  0  0  0  0  0  0  0  0
   -6.2664   -0.3989    0.2694 C   0  0  0  0  0  0  0  0  0  0  0  0
   -5.3171   -0.3216    1.2679 C   0  0  0  0  0  0  0  0  0  0  0  0
   -4.0451    0.1215    1.0043 C   0  0  0  0  0  0  0  0  0  0  0  0
   -3.7037    0.4951   -0.2672 C   0  0  0  0  0  0  0  0  0  0  0  0
   -2.3802    0.9508   -0.5161 N   0  0  0  0  0  0  0  0  0  0  0  0
   -2.1022    2.1363   -1.0863 C   0  0  0  0  0  0  0  0  0  0  0  0
   -2.8764    3.1856   -1.5661 C   0  0  0  0  0  0  0  0  0  0  0  0
   -2.3042    4.3126   -2.1156 C   0  0  0  0  0  0  0  0  0  0  0  0
   -0.9320    4.3793   -2.1808 C   0  0  0  0  0  0  0  0  0  0  0  0
   -0.1495    3.3281   -1.7003 C   0  0  0  0  0  0  0  0  0  0  0  0
   -0.7271    2.2079   -1.1539 C   0  0  0  0  0  0  0  0  0  0  0  0
   -0.1752    1.0503   -0.6172 C   0  0  0  0  0  0  0  0  0  0  0  0
    1.1159    0.5999   -0.4348 C   0  0  0  0  0  0  0  0  0  0  0  0
    1.3119   -0.6403    0.1499 C   0  0  0  0  0  0  0  0  0  0  0  0
    0.2647   -1.4390    0.5550 C   0  0  0  0  0  0  0  0  0  0  0  0
   -1.0154   -0.9554    0.3564 C   0  0  0  0  0  0  0  0  0  0  0  0
   -1.2555    0.2739   -0.2219 C   0  0  0  0  0  0  0  0  0  0  0  0
    0.7955   -2.5934    1.0906 C   0  0  0  0  0  0  0  0  0  0  0  0
    0.2146   -3.7141    1.6373 C   0  0  0  0  0  0  0  0  0  0  0  0
    1.0437   -4.7341    2.1018 C   0  0  0  0  0  0  0  0  0  0  0  0
    2.4233   -4.6465    2.0266 C   0  0  0  0  0  0  0  0  0  0  0  0
    2.9968   -3.5186    1.4766 C   0  0  0  0  0  0  0  0  0  0  0  0
    2.1703   -2.5113    1.0180 C   0  0  0  0  0  0  0  0  0  0  0  0
    2.4522   -1.3104    0.4405 N   0  0  0  0  0  0  0  0  0  0  0  0
    3.7684   -0.8338    0.1819 C   0  0  0  0  0  0  0  0  0  0  0  0
    4.2325   -0.7188   -1.1084 C   0  0  0  0  0  0  0  0  0  0  0  0
    5.5110   -0.2568   -1.3838 C   0  0  0  0  0  0  0  0  0  0  0  0
    6.3523    0.1002   -0.3654 C   0  0  0  0  0  0  0  0  0  0  0  0
    7.7372    0.6047   -0.5701 C   0  0  0  0  0  0  0  0  0  0  0  0
    7.8174    2.0830   -0.7084 C   0  0  0  0  0  0  0  0  0  0  0  0
    5.8838   -0.0161    0.9333 C   0  0  0  0  0  0  0  0  0  0  0  0
    4.6105   -0.4760    1.2102 C   0  0  0  0  0  0  0  0  0  0  0  0
   -4.6576    0.4168   -1.2678 C   0  0  0  0  0  0  0  0  0  0  0  0
   -5.9399   -0.0271   -1.0155 C   0  0  0  0  0  0  0  0  0  0  0  0
   -8.9344    0.1130    2.0298 H   0  0  0  0  0  0  0  0  0  0  0  0
   -7.9587    1.2324    1.0392 H   0  0  0  0  0  0  0  0  0  0  0  0
   -9.3475    0.3379    0.3103 H   0  0  0  0  0  0  0  0  0  0  0  0
   -8.0528   -1.4167   -0.2724 H   0  0  0  0  0  0  0  0  0  0  0  0
   -7.5344   -1.5735    1.4710 H   0  0  0  0  0  0  0  0  0  0  0  0
   -5.5847   -0.6162    2.2732 H   0  0  0  0  0  0  0  0  0  0  0  0
   -3.3340    0.1681    1.8055 H   0  0  0  0  0  0  0  0  0  0  0  0
   -3.9547    3.1474   -1.5215 H   0  0  0  0  0  0  0  0  0  0  0  0
   -2.8658    5.1524   -2.5009 H   0  0  0  0  0  0  0  0  0  0  0  0
   -0.4582    5.2583   -2.6101 H   0  0  0  0  0  0  0  0  0  0  0  0
    0.9322    3.3760   -1.7495 H   0  0  0  0  0  0  0  0  0  0  0  0
    1.9651    1.1959   -0.7387 H   0  0  0  0  0  0  0  0  0  0  0  0
   -1.8266   -1.6056    0.6852 H   0  0  0  0  0  0  0  0  0  0  0  0
   -0.8482   -3.7625    1.6863 H   0  0  0  0  0  0  0  0  0  0  0  0
    0.5664   -5.6094    2.5295 H   0  0  0  0  0  0  0  0  0  0  0  0
    3.0159   -5.4746    2.4056 H   0  0  0  0  0  0  0  0  0  0  0  0
    4.0653   -3.3942    1.3914 H   0  0  0  0  0  0  0  0  0  0  0  0
    3.6252   -0.9824   -1.9783 H   0  0  0  0  0  0  0  0  0  0  0  0
    5.8505   -0.1755   -2.3907 H   0  0  0  0  0  0  0  0  0  0  0  0
    8.3484    0.2994    0.3240 H   0  0  0  0  0  0  0  0  0  0  0  0
    8.1619    0.0401   -1.4248 H   0  0  0  0  0  0  0  0  0  0  0  0
    8.5254    2.3075   -1.5569 H   0  0  0  0  0  0  0  0  0  0  0  0
    8.2918    2.5523    0.1867 H   0  0  0  0  0  0  0  0  0  0  0  0
    6.8723    2.5775   -0.9527 H   0  0  0  0  0  0  0  0  0  0  0  0
    6.5236    0.2578    1.7624 H   0  0  0  0  0  0  0  0  0  0  0  0
    4.2999   -0.5445    2.2658 H   0  0  0  0  0  0  0  0  0  0  0  0
   -4.3880    0.7119   -2.2724 H   0  0  0  0  0  0  0  0  0  0  0  0
   -6.6935   -0.0919   -1.7920 H   0  0  0  0  0  0  0  0  0  0  0  0
  1  2  1  0
  2  3  1  0
  3  4  2  0
  4  5  1  0
  5  6  2  0
  6  7  1  0
  7  8  1  0
  8  9  2  0
  9 10  1  0
 10 11  2  0
 11 12  1  0
 12 13  2  0
 13 14  1  0
 14 15  2  0
 15 16  1  0
 16 17  2  0
 17 18  1  0
 18 19  2  0
 17 20  1  0
 20 21  2  0
 21 22  1  0
 22 23  2  0
 23 24  1  0
 24 25  2  0
 25 26  1  0
 26 27  1  0
 27 28  2  0
 28 29  1  0
 29 30  2  0
 30 31  1  0
 31 32  1  0
 30 33  1  0
 33 34  2  0
  6 35  1  0
 35 36  2  0
 36  3  1  0
 19  7  1  0
 25 20  1  0
 34 27  1  0
 13  8  1  0
 19 14  1  0
 26 16  1  0
  1 37  1  0
  1 38  1  0
  1 39  1  0
  2 40  1  0
  2 41  1  0
  4 42  1  0
  5 43  1  0
  9 44  1  0
 10 45  1  0
 11 46  1  0
 12 47  1  0
 15 48  1  0
 18 49  1  0
 21 50  1  0
 22 51  1  0
 23 52  1  0
 24 53  1  0
 28 54  1  0
 29 55  1  0
 31 56  1  0
 31 57  1  0
 32 58  1  0
 32 59  1  0
 32 60  1  0
 33 61  1  0
 34 62  1  0
 35 63  1  0
 36 64  1  0
M  END
