
     RDKit          3D

 66 70  0  0  0  0  0  0  0  0999 V2000
   -1.1700   -4.4238   -1.6916 C   0  0  0  0  0  0  0  0  0  0  0  0
   -1.5478   -3.7898   -0.3818 C   0  0  0  0  0  0  0  0  0  0  0  0
   -1.7322   -2.3889   -0.5504 O   0  0  0  0  0  0  0  0  0  0  0  0
   -2.0955   -1.6072    0.5356 C   0  0  0  0  0  0  0  0  0  0  0  0
   -2.2483   -2.1906    1.6454 O   0  0  0  0  0  0  0  0  0  0  0  0
   -2.3090   -0.1625    0.4612 C   0  0  0  0  0  0  0  0  0  0  0  0
   -1.3430    0.7994    0.6672 C   0  0  0  0  0  0  0  0  0  0  0  0
    0.0643    0.6941    1.0015 C   0  0  0  0  0  0  0  0  0  0  0  0
    0.9378    0.0640    0.1505 C   0  0  0  0  0  0  0  0  0  0  0  0
    2.3033    0.0059    0.4447 C   0  0  0  0  0  0  0  0  0  0  0  0
    3.2333   -0.6000   -0.3619 C   0  0  0  0  0  0  0  0  0  0  0  0
    4.5831   -0.6295   -0.0335 C   0  0  0  0  0  0  0  0  0  0  0  0
    4.9929   -0.0396    1.1219 C   0  0  0  0  0  0  0  0  0  0  0  0
    4.0530    0.5762    1.9437 C   0  0  0  0  0  0  0  0  0  0  0  0
    2.7046    0.6099    1.6220 C   0  0  0  0  0  0  0  0  0  0  0  0
    1.8586    1.2121    2.4372 O   0  0  0  0  0  0  0  0  0  0  0  0
    0.5561    1.2644    2.1492 C   0  0  0  0  0  0  0  0  0  0  0  0
   -0.2685    1.8354    2.9162 O   0  0  0  0  0  0  0  0  0  0  0  0
    6.3504   -0.0872    1.4138 O   0  0  0  0  0  0  0  0  0  0  0  0
    7.2547    0.0599    0.3294 C   0  0  0  0  0  0  0  0  0  0  0  0
    8.6559   -0.2554    0.8614 C   0  0  0  0  0  0  0  0  0  0  0  0
    7.1858    1.5142   -0.1103 C   0  0  0  0  0  0  0  0  0  0  0  0
    6.9427   -0.8058   -0.8460 C   0  0  0  0  0  0  0  0  0  0  0  0
    5.5360   -1.2914   -0.9328 C   0  0  0  0  0  0  0  0  0  0  0  0
   -1.9653    1.9878    0.5036 N   0  0  0  0  0  0  0  0  0  0  0  0
   -3.2545    1.8094    0.2084 N   0  0  0  0  0  0  0  0  0  0  0  0
   -4.2051    2.8200   -0.0497 C   0  0  0  0  0  0  0  0  0  0  0  0
   -4.1912    3.4066   -1.2952 C   0  0  0  0  0  0  0  0  0  0  0  0
   -5.0618    4.4066   -1.6667 C   0  0  0  0  0  0  0  0  0  0  0  0
   -5.9811    4.8216   -0.7287 C   0  0  0  0  0  0  0  0  0  0  0  0
   -6.0186    4.2485    0.5340 C   0  0  0  0  0  0  0  0  0  0  0  0
   -5.1260    3.2429    0.8753 C   0  0  0  0  0  0  0  0  0  0  0  0
   -3.4897    0.4882    0.1774 C   0  0  0  0  0  0  0  0  0  0  0  0
   -4.7710   -0.1837   -0.1083 C   0  0  0  0  0  0  0  0  0  0  0  0
   -5.8124    0.4822   -0.3506 O   0  0  0  0  0  0  0  0  0  0  0  0
   -4.8713   -1.5619   -0.1195 O   0  0  0  0  0  0  0  0  0  0  0  0
   -6.1397   -2.1481   -0.3995 C   0  0  0  0  0  0  0  0  0  0  0  0
   -7.1521   -1.7475    0.6449 C   0  0  0  0  0  0  0  0  0  0  0  0
   -1.4098   -5.4971   -1.6187 H   0  0  0  0  0  0  0  0  0  0  0  0
   -0.0680   -4.3508   -1.8631 H   0  0  0  0  0  0  0  0  0  0  0  0
   -1.7035   -3.9166   -2.5201 H   0  0  0  0  0  0  0  0  0  0  0  0
   -2.5051   -4.2096   -0.0153 H   0  0  0  0  0  0  0  0  0  0  0  0
   -0.7733   -4.0285    0.3587 H   0  0  0  0  0  0  0  0  0  0  0  0
    0.5897   -0.3992   -0.7571 H   0  0  0  0  0  0  0  0  0  0  0  0
    2.9017   -1.0739   -1.2833 H   0  0  0  0  0  0  0  0  0  0  0  0
    4.3861    1.0355    2.8467 H   0  0  0  0  0  0  0  0  0  0  0  0
    9.3337    0.6331    0.6887 H   0  0  0  0  0  0  0  0  0  0  0  0
    9.1165   -1.0707    0.2761 H   0  0  0  0  0  0  0  0  0  0  0  0
    8.6264   -0.5305    1.9338 H   0  0  0  0  0  0  0  0  0  0  0  0
    7.4578    2.1390    0.7765 H   0  0  0  0  0  0  0  0  0  0  0  0
    6.0956    1.6929   -0.3327 H   0  0  0  0  0  0  0  0  0  0  0  0
    7.7964    1.7182   -0.9973 H   0  0  0  0  0  0  0  0  0  0  0  0
    7.2670   -0.2454   -1.7650 H   0  0  0  0  0  0  0  0  0  0  0  0
    7.6247   -1.6980   -0.8182 H   0  0  0  0  0  0  0  0  0  0  0  0
    5.4755   -2.4018   -0.7553 H   0  0  0  0  0  0  0  0  0  0  0  0
    5.1600   -1.0975   -1.9821 H   0  0  0  0  0  0  0  0  0  0  0  0
   -3.4577    3.0712   -2.0370 H   0  0  0  0  0  0  0  0  0  0  0  0
   -5.0375    4.8587   -2.6564 H   0  0  0  0  0  0  0  0  0  0  0  0
   -6.6742    5.6152   -1.0160 H   0  0  0  0  0  0  0  0  0  0  0  0
   -6.7450    4.5847    1.2593 H   0  0  0  0  0  0  0  0  0  0  0  0
   -5.1718    2.7965    1.8839 H   0  0  0  0  0  0  0  0  0  0  0  0
   -6.5130   -1.8123   -1.3982 H   0  0  0  0  0  0  0  0  0  0  0  0
   -6.0549   -3.2327   -0.4531 H   0  0  0  0  0  0  0  0  0  0  0  0
   -6.6274   -1.3591    1.5460 H   0  0  0  0  0  0  0  0  0  0  0  0
   -7.8324   -1.0015    0.2026 H   0  0  0  0  0  0  0  0  0  0  0  0
   -7.7157   -2.6557    0.9490 H   0  0  0  0  0  0  0  0  0  0  0  0
  1  2  1  0
  2  3  1  0
  3  4  1  0
  4  5  2  0
  4  6  1  0
  6  7  1  0
  7  8  1  0
  8  9  2  0
  9 10  1  0
 10 11  2  0
 11 12  1  0
 12 13  2  0
 13 14  1  0
 14 15  2  0
 15 16  1  0
 16 17  1  0
 17 18  2  0
 13 19  1  0
 19 20  1  0
 20 21  1  0
 20 22  1  0
 20 23  1  0
 23 24  1  0
  7 25  2  0
 25 26  1  0
 26 27  1  0
 27 28  2  0
 28 29  1  0
 29 30  2  0
 30 31  1  0
 31 32  2  0
 26 33  1  0
 33 34  1  0
 34 35  2  0
 34 36  1  0
 36 37  1  0
 37 38  1  0
 33  6  2  0
 17  8  1  0
 32 27  1  0
 15 10  1  0
 24 12  1  0
  1 39  1  0
  1 40  1  0
  1 41  1  0
  2 42  1  0
  2 43  1  0
  9 44  1  0
 11 45  1  0
 14 46  1  0
 21 47  1  0
 21 48  1  0
 21 49  1  0
 22 50  1  0
 22 51  1  0
 22 52  1  0
 23 53  1  0
 23 54  1  0
 24 55  1  0
 24 56  1  0
 28 57  1  0
 29 58  1  0
 30 59  1  0
 31 60  1  0
 32 61  1  0
 37 62  1  0
 37 63  1  0
 38 64  1  0
 38 65  1  0
 38 66  1  0
M  END
