
     RDKit          3D

 28 30  0  0  0  0  0  0  0  0999 V2000
   -5.0932   -0.6379   -0.3624 C   0  0  0  0  0  0  0  0  0  0  0  0
   -4.4476    0.5665   -0.0649 O   0  0  0  0  0  0  0  0  0  0  0  0
   -3.0696    0.5826    0.0437 C   0  0  0  0  0  0  0  0  0  0  0  0
   -2.4726    1.7993    0.3400 C   0  0  0  0  0  0  0  0  0  0  0  0
   -1.1001    1.8952    0.4646 C   0  0  0  0  0  0  0  0  0  0  0  0
   -0.3317    0.7637    0.2900 C   0  0  0  0  0  0  0  0  0  0  0  0
    1.0648    0.8297    0.4103 C   0  0  0  0  0  0  0  0  0  0  0  0
    1.7176   -0.3518    0.2166 C   0  0  0  0  0  0  0  0  0  0  0  0
    3.2086   -0.3858    0.3235 C   0  0  0  0  0  0  0  0  0  0  0  0
    4.0129    0.5462   -0.2460 C   0  0  0  0  0  0  0  0  0  0  0  0
    5.3634    0.3950   -0.0696 C   0  0  0  0  0  0  0  0  0  0  0  0
    5.4745   -1.0193    0.8702 S   0  0  0  0  0  0  0  0  0  0  0  0
    3.8243   -1.3895    1.0209 C   0  0  0  0  0  0  0  0  0  0  0  0
    1.0668   -1.5189   -0.0736 C   0  0  0  0  0  0  0  0  0  0  0  0
    1.7319   -2.6003   -0.2458 O   0  0  0  0  0  0  0  0  0  0  0  0
   -0.2319   -1.5637   -0.1821 O   0  0  0  0  0  0  0  0  0  0  0  0
   -0.9113   -0.4491   -0.0042 C   0  0  0  0  0  0  0  0  0  0  0  0
   -2.2917   -0.5252   -0.1253 C   0  0  0  0  0  0  0  0  0  0  0  0
   -4.8280   -1.3989    0.3922 H   0  0  0  0  0  0  0  0  0  0  0  0
   -4.6937   -0.9890   -1.3450 H   0  0  0  0  0  0  0  0  0  0  0  0
   -6.1860   -0.5511   -0.4097 H   0  0  0  0  0  0  0  0  0  0  0  0
   -3.0720    2.6883    0.4775 H   0  0  0  0  0  0  0  0  0  0  0  0
   -0.5927    2.8135    0.6926 H   0  0  0  0  0  0  0  0  0  0  0  0
    1.5333    1.7641    0.6387 H   0  0  0  0  0  0  0  0  0  0  0  0
    3.5854    1.4023   -0.8353 H   0  0  0  0  0  0  0  0  0  0  0  0
    6.1660    1.0561   -0.4604 H   0  0  0  0  0  0  0  0  0  0  0  0
    3.3256   -2.2262    1.5448 H   0  0  0  0  0  0  0  0  0  0  0  0
   -2.7529   -1.4955   -0.3605 H   0  0  0  0  0  0  0  0  0  0  0  0
  1  2  1  0
  2  3  1  0
  3  4  2  0
  4  5  1  0
  5  6  2  0
  6  7  1  0
  7  8  2  0
  8  9  1  0
  9 10  1  0
 10 11  2  0
 11 12  1  0
 12 13  1  0
  8 14  1  0
 14 15  2  0
 14 16  1  0
 16 17  1  0
 17 18  2  0
 18  3  1  0
 17  6  1  0
 13  9  2  0
  1 19  1  0
  1 20  1  0
  1 21  1  0
  4 22  1  0
  5 23  1  0
  7 24  1  0
 10 25  1  0
 11 26  1  0
 13 27  1  0
 18 28  1  0
M  END
