
     RDKit          3D

 64 69  0  0  0  0  0  0  0  0999 V2000
    5.7885    2.4684    0.1542 O   0  0  0  0  0  0  0  0  0  0  0  0
    6.7369    1.6577    0.0417 C   0  0  0  0  0  0  0  0  0  0  0  0
    8.0138    2.1794    0.1871 O   0  0  0  0  0  0  0  0  0  0  0  0
    6.5152    0.2102   -0.2331 C   0  0  0  0  0  0  0  0  0  0  0  0
    7.0173   -0.1647   -1.6033 C   0  0  0  0  0  0  0  0  0  0  0  0
    6.1077   -1.3114   -1.9407 C   0  0  0  0  0  0  0  0  0  0  0  0
    4.7406   -0.7464   -1.4865 C   0  0  0  0  0  0  0  0  0  0  0  0
    5.0686   -0.1002   -0.2510 N   0  0  0  0  0  0  0  0  0  0  0  0
    4.2080    0.2481    0.8062 C   0  0  0  0  0  0  0  0  0  0  0  0
    4.7871    0.7632    1.8276 O   0  0  0  0  0  0  0  0  0  0  0  0
    2.7825    0.0822    0.8418 C   0  0  0  0  0  0  0  0  0  0  0  0
    1.9511   -0.2732   -0.1786 C   0  0  0  0  0  0  0  0  0  0  0  0
    0.5987   -0.4461   -0.0167 C   0  0  0  0  0  0  0  0  0  0  0  0
   -0.0212   -0.2696    1.2014 C   0  0  0  0  0  0  0  0  0  0  0  0
   -1.4686   -0.4239    1.4324 C   0  0  0  0  0  0  0  0  0  0  0  0
   -2.1215    0.8067    0.7321 C   0  0  0  0  0  0  0  0  0  0  0  0
   -3.4065    0.2572    0.3172 C   0  0  0  0  0  0  0  0  0  0  0  0
   -4.6614    0.9263   -0.0285 C   0  0  0  0  0  0  0  0  0  0  0  0
   -5.8173    0.1058   -0.0637 C   0  0  0  0  0  0  0  0  0  0  0  0
   -7.0552    0.6505   -0.2734 C   0  0  0  0  0  0  0  0  0  0  0  0
   -7.1899    1.9943   -0.4520 C   0  0  0  0  0  0  0  0  0  0  0  0
   -6.0943    2.8208   -0.4271 C   0  0  0  0  0  0  0  0  0  0  0  0
   -6.2480    4.1875   -0.6386 C   0  0  0  0  0  0  0  0  0  0  0  0
   -5.1505    5.0075   -0.6432 C   0  0  0  0  0  0  0  0  0  0  0  0
   -3.8850    4.5019   -0.4416 C   0  0  0  0  0  0  0  0  0  0  0  0
   -3.7803    3.1193   -0.2320 C   0  0  0  0  0  0  0  0  0  0  0  0
   -4.8306    2.2576   -0.2131 C   0  0  0  0  0  0  0  0  0  0  0  0
   -3.3348   -1.0568    0.3600 N   0  0  0  0  0  0  0  0  0  0  0  0
   -2.0974   -1.5193    0.7746 N   0  0  0  0  0  0  0  0  0  0  0  0
   -1.5759   -2.8317    0.5660 C   0  0  0  0  0  0  0  0  0  0  0  0
   -0.4325   -3.2534    1.1564 C   0  0  0  0  0  0  0  0  0  0  0  0
    0.0480   -4.5342    0.9230 C   0  0  0  0  0  0  0  0  0  0  0  0
   -0.6020   -5.4238    0.0952 C   0  0  0  0  0  0  0  0  0  0  0  0
   -1.7742   -4.9974   -0.5123 C   0  0  0  0  0  0  0  0  0  0  0  0
   -2.2441   -3.7310   -0.2782 C   0  0  0  0  0  0  0  0  0  0  0  0
    0.8099    0.0911    2.2393 C   0  0  0  0  0  0  0  0  0  0  0  0
    2.1648    0.2660    2.0876 C   0  0  0  0  0  0  0  0  0  0  0  0
    8.2786    3.0923   -0.1740 H   0  0  0  0  0  0  0  0  0  0  0  0
    7.0608   -0.3635    0.5127 H   0  0  0  0  0  0  0  0  0  0  0  0
    6.9320    0.6713   -2.3166 H   0  0  0  0  0  0  0  0  0  0  0  0
    8.0611   -0.5335   -1.5870 H   0  0  0  0  0  0  0  0  0  0  0  0
    6.0934   -1.5919   -2.9919 H   0  0  0  0  0  0  0  0  0  0  0  0
    6.3169   -2.1422   -1.2379 H   0  0  0  0  0  0  0  0  0  0  0  0
    4.0914   -1.6504   -1.3641 H   0  0  0  0  0  0  0  0  0  0  0  0
    4.3586   -0.0433   -2.2195 H   0  0  0  0  0  0  0  0  0  0  0  0
    2.3318   -0.4020   -1.1633 H   0  0  0  0  0  0  0  0  0  0  0  0
   -0.0497   -0.7324   -0.8487 H   0  0  0  0  0  0  0  0  0  0  0  0
   -1.6752   -0.3638    2.5029 H   0  0  0  0  0  0  0  0  0  0  0  0
   -1.4809    1.0766   -0.1158 H   0  0  0  0  0  0  0  0  0  0  0  0
   -2.1694    1.5910    1.5208 H   0  0  0  0  0  0  0  0  0  0  0  0
   -5.7293   -0.9701    0.0767 H   0  0  0  0  0  0  0  0  0  0  0  0
   -7.9677    0.0422   -0.3054 H   0  0  0  0  0  0  0  0  0  0  0  0
   -8.1587    2.4309   -0.6158 H   0  0  0  0  0  0  0  0  0  0  0  0
   -7.2472    4.5450   -0.7926 H   0  0  0  0  0  0  0  0  0  0  0  0
   -5.3098    6.0675   -0.8106 H   0  0  0  0  0  0  0  0  0  0  0  0
   -3.0184    5.1437   -0.4457 H   0  0  0  0  0  0  0  0  0  0  0  0
   -2.7958    2.7734   -0.1236 H   0  0  0  0  0  0  0  0  0  0  0  0
    0.1372   -2.6370    1.8186 H   0  0  0  0  0  0  0  0  0  0  0  0
    0.9579   -4.8799    1.3880 H   0  0  0  0  0  0  0  0  0  0  0  0
   -0.2446   -6.4232   -0.0988 H   0  0  0  0  0  0  0  0  0  0  0  0
   -2.3418   -5.6448   -1.1786 H   0  0  0  0  0  0  0  0  0  0  0  0
   -3.1548   -3.3758   -0.7397 H   0  0  0  0  0  0  0  0  0  0  0  0
    0.3973    0.2516    3.2396 H   0  0  0  0  0  0  0  0  0  0  0  0
    2.7791    0.5498    2.9359 H   0  0  0  0  0  0  0  0  0  0  0  0
  1  2  2  0
  2  3  1  0
  2  4  1  0
  4  5  1  0
  5  6  1  0
  6  7  1  0
  7  8  1  0
  8  9  1  0
  9 10  2  0
  9 11  1  0
 11 12  2  0
 12 13  1  0
 13 14  2  0
 14 15  1  0
 15 16  1  0
 16 17  1  0
 17 18  1  0
 18 19  2  0
 19 20  1  0
 20 21  2  0
 21 22  1  0
 22 23  2  0
 23 24  1  0
 24 25  2  0
 25 26  1  0
 26 27  2  0
 17 28  2  0
 28 29  1  0
 29 30  1  0
 30 31  2  0
 31 32  1  0
 32 33  2  0
 33 34  1  0
 34 35  2  0
 14 36  1  0
 36 37  2  0
  8  4  1  0
 37 11  1  0
 29 15  1  0
 35 30  1  0
 27 18  1  0
 27 22  1  0
  3 38  1  0
  4 39  1  0
  5 40  1  0
  5 41  1  0
  6 42  1  0
  6 43  1  0
  7 44  1  0
  7 45  1  0
 12 46  1  0
 13 47  1  0
 15 48  1  0
 16 49  1  0
 16 50  1  0
 19 51  1  0
 20 52  1  0
 21 53  1  0
 23 54  1  0
 24 55  1  0
 25 56  1  0
 26 57  1  0
 31 58  1  0
 32 59  1  0
 33 60  1  0
 34 61  1  0
 35 62  1  0
 36 63  1  0
 37 64  1  0
M  END
