
     RDKit          3D

 41 43  0  0  0  0  0  0  0  0999 V2000
    0.4245   -3.2863    2.5772 C   0  0  0  0  0  0  0  0  0  0  0  0
   -0.5755   -2.3491    2.0141 C   0  0  0  0  0  0  0  0  0  0  0  0
   -1.5630   -1.9810    2.6289 O   0  0  0  0  0  0  0  0  0  0  0  0
   -0.3472   -1.7985    0.5366 B   0  0  0  0  0  4  0  0  0  0  0  0
   -0.3178   -3.0513   -0.4128 C   0  0  0  0  0  0  0  0  0  0  0  0
   -0.8591   -3.0019   -1.7956 C   0  0  0  0  0  0  0  0  0  0  0  0
    0.1662   -4.0817    0.0156 O   0  0  0  0  0  0  0  0  0  0  0  0
   -1.4260   -0.8829    0.1499 O   0  0  0  0  0  0  0  0  0  0  0  0
   -1.1874    0.4455   -0.1767 C   0  0  0  0  0  0  0  0  0  0  0  0
   -2.3271    1.3158   -0.5591 C   0  0  0  0  0  0  0  0  0  0  0  0
   -2.1974    2.6319   -0.8965 C   0  0  0  0  0  0  0  0  0  0  0  0
   -3.2860    3.3995   -1.2447 C   0  0  0  0  0  0  0  0  0  0  0  0
   -4.5318    2.8233   -1.2516 C   0  0  0  0  0  0  0  0  0  0  0  0
   -4.6731    1.5014   -0.9141 C   0  0  0  0  0  0  0  0  0  0  0  0
   -3.5850    0.7381   -0.5672 C   0  0  0  0  0  0  0  0  0  0  0  0
    0.0241    0.9351   -0.1510 C   0  0  0  0  0  0  0  0  0  0  0  0
    1.1514    0.0932    0.2222 C   0  0  0  0  0  0  0  0  0  0  0  0
    2.4850    0.6600    0.2430 C   0  0  0  0  0  0  0  0  0  0  0  0
    3.5432   -0.1776    0.6061 C   0  0  0  0  0  0  0  0  0  0  0  0
    4.8268    0.3161    0.6401 C   0  0  0  0  0  0  0  0  0  0  0  0
    5.0777    1.6327    0.3183 C   0  0  0  0  0  0  0  0  0  0  0  0
    4.0371    2.4576   -0.0391 C   0  0  0  0  0  0  0  0  0  0  0  0
    2.7243    1.9630   -0.0766 C   0  0  0  0  0  0  0  0  0  0  0  0
    0.9768   -1.1361    0.5304 O   0  0  0  0  0  3  0  0  0  0  0  0
    0.4478   -3.0923    3.6876 H   0  0  0  0  0  0  0  0  0  0  0  0
    0.0546   -4.3200    2.3722 H   0  0  0  0  0  0  0  0  0  0  0  0
    1.4284   -3.1398    2.1599 H   0  0  0  0  0  0  0  0  0  0  0  0
   -0.3364   -3.7589   -2.4239 H   0  0  0  0  0  0  0  0  0  0  0  0
   -1.9363   -3.2352   -1.8489 H   0  0  0  0  0  0  0  0  0  0  0  0
   -0.6366   -2.0062   -2.2450 H   0  0  0  0  0  0  0  0  0  0  0  0
   -1.2366    3.1280   -0.9051 H   0  0  0  0  0  0  0  0  0  0  0  0
   -3.1622    4.4638   -1.5150 H   0  0  0  0  0  0  0  0  0  0  0  0
   -5.3647    3.4475   -1.5279 H   0  0  0  0  0  0  0  0  0  0  0  0
   -5.6546    1.0453   -0.9190 H   0  0  0  0  0  0  0  0  0  0  0  0
   -3.6733   -0.3014   -0.2989 H   0  0  0  0  0  0  0  0  0  0  0  0
    0.1873    1.9781   -0.4105 H   0  0  0  0  0  0  0  0  0  0  0  0
    3.3685   -1.2248    0.8653 H   0  0  0  0  0  0  0  0  0  0  0  0
    5.6435   -0.3421    0.9234 H   0  0  0  0  0  0  0  0  0  0  0  0
    6.1049    2.0329    0.3441 H   0  0  0  0  0  0  0  0  0  0  0  0
    4.2316    3.4844   -0.2902 H   0  0  0  0  0  0  0  0  0  0  0  0
    1.9733    2.6740   -0.3656 H   0  0  0  0  0  0  0  0  0  0  0  0
  1  2  1  0
  2  3  2  0
  2  4  1  0
  4  5  1  0
  5  6  1  0
  5  7  2  0
  4  8  1  0
  8  9  1  0
  9 10  1  0
 10 11  2  0
 11 12  1  0
 12 13  2  0
 13 14  1  0
 14 15  2  0
  9 16  2  0
 16 17  1  0
 17 18  1  0
 18 19  2  0
 19 20  1  0
 20 21  2  0
 21 22  1  0
 22 23  2  0
 17 24  2  0
 24  4  1  0
 15 10  1  0
 23 18  1  0
  1 25  1  0
  1 26  1  0
  1 27  1  0
  6 28  1  0
  6 29  1  0
  6 30  1  0
 11 31  1  0
 12 32  1  0
 13 33  1  0
 14 34  1  0
 15 35  1  0
 16 36  1  0
 19 37  1  0
 20 38  1  0
 21 39  1  0
 22 40  1  0
 23 41  1  0
M  CHG  2   4  -1  24   1
M  END
