
     RDKit          3D

 58 62  0  0  0  0  0  0  0  0999 V2000
    9.4488    2.1120    0.9364 C   0  0  0  0  0  0  0  0  0  0  0  0
    9.0172    0.7953    0.6622 O   0  0  0  0  0  0  0  0  0  0  0  0
    7.6831    0.5298    0.4150 C   0  0  0  0  0  0  0  0  0  0  0  0
    7.2584   -0.7547    0.1469 C   0  0  0  0  0  0  0  0  0  0  0  0
    5.9344   -1.0477   -0.1030 C   0  0  0  0  0  0  0  0  0  0  0  0
    5.4442   -2.2952   -0.3754 O   0  0  0  0  0  0  0  0  0  0  0  0
    6.1906   -3.4696   -0.4459 C   0  0  0  0  0  0  0  0  0  0  0  0
    5.0438    0.0208   -0.0714 C   0  0  0  0  0  0  0  0  0  0  0  0
    3.7109   -0.2152   -0.3137 C   0  0  0  0  0  0  0  0  0  0  0  0
    2.8400    0.8489   -0.2797 C   0  0  0  0  0  0  0  0  0  0  0  0
    1.4124    0.6863   -0.5250 C   0  0  0  0  0  0  0  0  0  0  0  0
    0.9218   -0.0744   -1.5596 C   0  0  0  0  0  0  0  0  0  0  0  0
   -0.4368   -0.2254   -1.7880 C   0  0  0  0  0  0  0  0  0  0  0  0
   -1.3574    0.3959   -0.9673 C   0  0  0  0  0  0  0  0  0  0  0  0
   -2.7956    0.2598   -1.1772 C   0  0  0  0  0  0  0  0  0  0  0  0
   -3.5897    0.0152   -0.0808 C   0  0  0  0  0  0  0  0  0  0  0  0
   -4.9419   -0.1159   -0.2559 C   0  0  0  0  0  0  0  0  0  0  0  0
   -5.7487   -0.3629    0.8462 C   0  0  0  0  0  0  0  0  0  0  0  0
   -5.1415   -0.4668    2.0889 O   0  0  0  0  0  0  0  0  0  0  0  0
   -5.9819   -0.7197    3.2066 C   0  0  0  0  0  0  0  0  0  0  0  0
   -7.1037   -0.4935    0.6657 C   0  0  0  0  0  0  0  0  0  0  0  0
   -7.6855   -0.3863   -0.5798 C   0  0  0  0  0  0  0  0  0  0  0  0
   -9.0765   -0.5233   -0.7441 O   0  0  0  0  0  0  0  0  0  0  0  0
   -9.8540   -0.7742    0.4101 C   0  0  0  0  0  0  0  0  0  0  0  0
   -6.8646   -0.1408   -1.6603 C   0  0  0  0  0  0  0  0  0  0  0  0
   -5.4869   -0.0039   -1.5053 C   0  0  0  0  0  0  0  0  0  0  0  0
   -4.7138    0.2288   -2.5334 O   0  0  0  0  0  0  0  0  0  0  0  0
   -3.4108    0.3606   -2.4042 C   0  0  0  0  0  0  0  0  0  0  0  0
   -2.6597    0.5855   -3.3944 O   0  0  0  0  0  0  0  0  0  0  0  0
   -0.8783    1.1602    0.0720 C   0  0  0  0  0  0  0  0  0  0  0  0
    0.4766    1.2967    0.2807 C   0  0  0  0  0  0  0  0  0  0  0  0
    3.3557    2.0983   -0.0031 C   0  0  0  0  0  0  0  0  0  0  0  0
    2.5794    3.1038    0.0361 O   0  0  0  0  0  0  0  0  0  0  0  0
    4.6187    2.3220    0.2265 O   0  0  0  0  0  0  0  0  0  0  0  0
    5.4456    1.3050    0.1932 C   0  0  0  0  0  0  0  0  0  0  0  0
    6.7667    1.5555    0.4360 C   0  0  0  0  0  0  0  0  0  0  0  0
   10.5503    2.1402    1.0650 H   0  0  0  0  0  0  0  0  0  0  0  0
    9.0034    2.4816    1.8783 H   0  0  0  0  0  0  0  0  0  0  0  0
    9.2153    2.8067    0.1026 H   0  0  0  0  0  0  0  0  0  0  0  0
    7.9839   -1.5694    0.1300 H   0  0  0  0  0  0  0  0  0  0  0  0
    6.7043   -3.4716   -1.4508 H   0  0  0  0  0  0  0  0  0  0  0  0
    6.9786   -3.5436    0.3303 H   0  0  0  0  0  0  0  0  0  0  0  0
    5.5357   -4.3523   -0.4380 H   0  0  0  0  0  0  0  0  0  0  0  0
    3.3230   -1.2051   -0.5296 H   0  0  0  0  0  0  0  0  0  0  0  0
    1.6473   -0.5610   -2.2023 H   0  0  0  0  0  0  0  0  0  0  0  0
   -0.8087   -0.8270   -2.6058 H   0  0  0  0  0  0  0  0  0  0  0  0
   -3.1661   -0.0772    0.9283 H   0  0  0  0  0  0  0  0  0  0  0  0
   -5.3835   -0.8944    4.1306 H   0  0  0  0  0  0  0  0  0  0  0  0
   -6.6417    0.1492    3.3931 H   0  0  0  0  0  0  0  0  0  0  0  0
   -6.6145   -1.6059    3.0707 H   0  0  0  0  0  0  0  0  0  0  0  0
   -7.7246   -0.6869    1.5377 H   0  0  0  0  0  0  0  0  0  0  0  0
   -9.6026   -1.7514    0.8848 H   0  0  0  0  0  0  0  0  0  0  0  0
  -10.9239   -0.7539    0.2085 H   0  0  0  0  0  0  0  0  0  0  0  0
   -9.5916    0.0374    1.1502 H   0  0  0  0  0  0  0  0  0  0  0  0
   -7.2588   -0.0463   -2.6599 H   0  0  0  0  0  0  0  0  0  0  0  0
   -1.5807    1.6507    0.7203 H   0  0  0  0  0  0  0  0  0  0  0  0
    0.8457    1.8977    1.0978 H   0  0  0  0  0  0  0  0  0  0  0  0
    7.0886    2.5719    0.6459 H   0  0  0  0  0  0  0  0  0  0  0  0
  1  2  1  0
  2  3  1  0
  3  4  2  0
  4  5  1  0
  5  6  1  0
  6  7  1  0
  5  8  2  0
  8  9  1  0
  9 10  2  0
 10 11  1  0
 11 12  2  0
 12 13  1  0
 13 14  2  0
 14 15  1  0
 15 16  2  0
 16 17  1  0
 17 18  2  0
 18 19  1  0
 19 20  1  0
 18 21  1  0
 21 22  2  0
 22 23  1  0
 23 24  1  0
 22 25  1  0
 25 26  2  0
 26 27  1  0
 27 28  1  0
 28 29  2  0
 14 30  1  0
 30 31  2  0
 10 32  1  0
 32 33  2  0
 32 34  1  0
 34 35  1  0
 35 36  2  0
 36  3  1  0
 35  8  1  0
 31 11  1  0
 28 15  1  0
 26 17  1  0
  1 37  1  0
  1 38  1  0
  1 39  1  0
  4 40  1  0
  7 41  1  0
  7 42  1  0
  7 43  1  0
  9 44  1  0
 12 45  1  0
 13 46  1  0
 16 47  1  0
 20 48  1  0
 20 49  1  0
 20 50  1  0
 21 51  1  0
 24 52  1  0
 24 53  1  0
 24 54  1  0
 25 55  1  0
 30 56  1  0
 31 57  1  0
 36 58  1  0
M  END
