
     RDKit          3D

 66 69  0  0  0  0  0  0  0  0999 V2000
   -5.6672   -5.1747   -3.1774 C   0  0  0  0  0  0  0  0  0  0  0  0
   -5.6245   -4.7623   -1.8366 O   0  0  0  0  0  0  0  0  0  0  0  0
   -4.9714   -3.6583   -1.3695 C   0  0  0  0  0  0  0  0  0  0  0  0
   -5.0318   -3.3946   -0.0001 C   0  0  0  0  0  0  0  0  0  0  0  0
   -4.3979   -2.3010    0.5430 C   0  0  0  0  0  0  0  0  0  0  0  0
   -3.6722   -1.4103   -0.2299 C   0  0  0  0  0  0  0  0  0  0  0  0
   -2.9897   -0.2510    0.3325 C   0  0  0  0  0  0  0  0  0  0  0  0
   -1.7514   -0.2989    1.0015 C   0  0  0  0  0  0  0  0  0  0  0  0
   -1.4099    0.9719    1.3894 C   0  0  0  0  0  0  0  0  0  0  0  0
   -2.4039    1.8041    0.9785 N   0  0  0  0  0  0  0  0  0  0  0  0
   -2.5568    3.1309    1.1066 C   0  0  0  0  0  0  0  0  0  0  0  0
   -3.6554    3.8088    0.6156 C   0  0  0  0  0  0  0  0  0  0  0  0
   -4.6283    3.0893   -0.0297 C   0  0  0  0  0  0  0  0  0  0  0  0
   -5.8015    3.7594   -0.5614 C   0  0  0  0  0  0  0  0  0  0  0  0
   -5.9636    5.2081   -0.4161 C   0  0  0  0  0  0  0  0  0  0  0  0
   -6.6680    3.0720   -1.1445 O   0  0  0  0  0  0  0  0  0  0  0  0
   -4.4526    1.7209   -0.1522 C   0  0  0  0  0  0  0  0  0  0  0  0
   -3.3372    1.0798    0.3539 C   0  0  0  0  0  0  0  0  0  0  0  0
   -0.1316    0.8870    2.0766 C   0  0  0  0  0  0  0  0  0  0  0  0
    0.5235    1.8385    2.5858 O   0  0  0  0  0  0  0  0  0  0  0  0
    0.2911   -0.4617    2.0959 N   0  0  0  0  0  0  0  0  0  0  0  0
    1.5413   -0.9805    2.6994 C   0  0  0  0  0  0  0  0  0  0  0  0
    2.6496   -0.9724    1.6619 C   0  0  0  0  0  0  0  0  0  0  0  0
    3.8738   -1.5034    2.3483 C   0  0  0  0  0  0  0  0  0  0  0  0
    4.9906   -1.5480    1.4587 N   0  0  0  0  0  0  0  0  0  0  0  0
    5.5037   -0.3684    0.8222 C   0  0  0  0  0  0  0  0  0  0  0  0
    4.9685    0.7375    1.0424 O   0  0  0  0  0  0  0  0  0  0  0  0
    6.5910   -0.4366   -0.0387 O   0  0  0  0  0  0  0  0  0  0  0  0
    7.1161    0.7084   -0.6804 C   0  0  0  0  0  0  0  0  0  0  0  0
    6.0877    1.3877   -1.5675 C   0  0  0  0  0  0  0  0  0  0  0  0
    7.6360    1.7210    0.3231 C   0  0  0  0  0  0  0  0  0  0  0  0
    8.2515    0.2798   -1.6115 C   0  0  0  0  0  0  0  0  0  0  0  0
   -0.7044   -1.2469    1.4257 C   0  0  0  0  0  0  0  0  0  0  0  0
   -3.6145   -1.6722   -1.5799 C   0  0  0  0  0  0  0  0  0  0  0  0
   -4.2512   -2.7743   -2.1401 C   0  0  0  0  0  0  0  0  0  0  0  0
   -5.6546   -6.3008   -3.1550 H   0  0  0  0  0  0  0  0  0  0  0  0
   -4.7651   -4.8202   -3.6918 H   0  0  0  0  0  0  0  0  0  0  0  0
   -6.6182   -4.8136   -3.6327 H   0  0  0  0  0  0  0  0  0  0  0  0
   -5.5984   -4.0818    0.6340 H   0  0  0  0  0  0  0  0  0  0  0  0
   -4.4307   -2.0726    1.6164 H   0  0  0  0  0  0  0  0  0  0  0  0
   -1.8005    3.7172    1.6132 H   0  0  0  0  0  0  0  0  0  0  0  0
   -3.7552    4.8963    0.7339 H   0  0  0  0  0  0  0  0  0  0  0  0
   -5.7068    5.4665    0.6530 H   0  0  0  0  0  0  0  0  0  0  0  0
   -5.2720    5.7722   -1.0460 H   0  0  0  0  0  0  0  0  0  0  0  0
   -7.0227    5.4939   -0.6096 H   0  0  0  0  0  0  0  0  0  0  0  0
   -5.2303    1.1761   -0.6622 H   0  0  0  0  0  0  0  0  0  0  0  0
    1.7776   -0.3468    3.5597 H   0  0  0  0  0  0  0  0  0  0  0  0
    1.3783   -2.0154    3.0579 H   0  0  0  0  0  0  0  0  0  0  0  0
    2.7640    0.0151    1.2035 H   0  0  0  0  0  0  0  0  0  0  0  0
    2.3585   -1.6791    0.8451 H   0  0  0  0  0  0  0  0  0  0  0  0
    3.6437   -2.5499    2.6716 H   0  0  0  0  0  0  0  0  0  0  0  0
    4.1208   -0.8639    3.2267 H   0  0  0  0  0  0  0  0  0  0  0  0
    5.4833   -2.4447    1.2332 H   0  0  0  0  0  0  0  0  0  0  0  0
    5.2281    1.7878   -1.0268 H   0  0  0  0  0  0  0  0  0  0  0  0
    5.7509    0.6869   -2.3599 H   0  0  0  0  0  0  0  0  0  0  0  0
    6.6511    2.2071   -2.0994 H   0  0  0  0  0  0  0  0  0  0  0  0
    8.7030    1.4679    0.5029 H   0  0  0  0  0  0  0  0  0  0  0  0
    7.6313    2.7474   -0.1270 H   0  0  0  0  0  0  0  0  0  0  0  0
    7.0558    1.7647    1.2474 H   0  0  0  0  0  0  0  0  0  0  0  0
    8.8566    1.1409   -1.8950 H   0  0  0  0  0  0  0  0  0  0  0  0
    8.9280   -0.4439   -1.0886 H   0  0  0  0  0  0  0  0  0  0  0  0
    7.7817   -0.1871   -2.4985 H   0  0  0  0  0  0  0  0  0  0  0  0
   -1.1123   -2.0599    2.0727 H   0  0  0  0  0  0  0  0  0  0  0  0
   -0.2354   -1.6994    0.4987 H   0  0  0  0  0  0  0  0  0  0  0  0
   -3.0542   -0.9885   -2.1993 H   0  0  0  0  0  0  0  0  0  0  0  0
   -4.1951   -2.9623   -3.2007 H   0  0  0  0  0  0  0  0  0  0  0  0
  1  2  1  0
  2  3  1  0
  3  4  2  0
  4  5  1  0
  5  6  2  0
  6  7  1  0
  7  8  1  0
  8  9  2  0
  9 10  1  0
 10 11  1  0
 11 12  2  0
 12 13  1  0
 13 14  1  0
 14 15  1  0
 14 16  2  0
 13 17  2  0
 17 18  1  0
  9 19  1  0
 19 20  2  0
 19 21  1  0
 21 22  1  0
 22 23  1  0
 23 24  1  0
 24 25  1  0
 25 26  1  0
 26 27  2  0
 26 28  1  0
 28 29  1  0
 29 30  1  0
 29 31  1  0
 29 32  1  0
 21 33  1  0
  6 34  1  0
 34 35  2  0
 35  3  1  0
 18  7  2  0
 33  8  1  0
 18 10  1  0
  1 36  1  0
  1 37  1  0
  1 38  1  0
  4 39  1  0
  5 40  1  0
 11 41  1  0
 12 42  1  0
 15 43  1  0
 15 44  1  0
 15 45  1  0
 17 46  1  0
 22 47  1  0
 22 48  1  0
 23 49  1  0
 23 50  1  0
 24 51  1  0
 24 52  1  0
 25 53  1  0
 30 54  1  0
 30 55  1  0
 30 56  1  0
 31 57  1  0
 31 58  1  0
 31 59  1  0
 32 60  1  0
 32 61  1  0
 32 62  1  0
 33 63  1  0
 33 64  1  0
 34 65  1  0
 35 66  1  0
M  END
