
     RDKit          3D

 68 71  0  0  0  0  0  0  0  0999 V2000
   -4.8165    8.9035   -2.1695 C   0  0  0  0  0  0  0  0  0  0  0  0
   -5.6074    7.7918   -1.7967 O   0  0  0  0  0  0  0  0  0  0  0  0
   -5.0096    6.5815   -1.4948 C   0  0  0  0  0  0  0  0  0  0  0  0
   -3.6459    6.4537   -1.5562 C   0  0  0  0  0  0  0  0  0  0  0  0
   -3.0702    5.2208   -1.2467 C   0  0  0  0  0  0  0  0  0  0  0  0
   -3.8251    4.1457   -0.8866 C   0  0  0  0  0  0  0  0  0  0  0  0
   -3.2586    2.8576   -0.5637 C   0  0  0  0  0  0  0  0  0  0  0  0
   -1.9825    2.5375   -0.5717 C   0  0  0  0  0  0  0  0  0  0  0  0
   -1.4316    1.2367   -0.2441 C   0  0  0  0  0  0  0  0  0  0  0  0
   -2.2288    0.1875    0.1198 C   0  0  0  0  0  0  0  0  0  0  0  0
   -1.6700   -1.0628    0.4310 C   0  0  0  0  0  0  0  0  0  0  0  0
   -2.4860   -2.2028    0.8241 C   0  0  0  0  0  0  0  0  0  0  0  0
   -1.8772   -3.3324    1.0968 C   0  0  0  0  0  0  0  0  0  0  0  0
   -2.6355   -4.5184    1.4987 C   0  0  0  0  0  0  0  0  0  0  0  0
   -3.9853   -4.5500    1.6178 C   0  0  0  0  0  0  0  0  0  0  0  0
   -4.6273   -5.7230    2.0086 C   0  0  0  0  0  0  0  0  0  0  0  0
   -3.9105   -6.8658    2.2798 C   0  0  0  0  0  0  0  0  0  0  0  0
   -4.5733   -8.0440    2.6740 O   0  0  0  0  0  0  0  0  0  0  0  0
   -3.8359   -9.2080    2.9506 C   0  0  0  0  0  0  0  0  0  0  0  0
   -2.5381   -6.8385    2.1600 C   0  0  0  0  0  0  0  0  0  0  0  0
   -1.9117   -5.6818    1.7751 C   0  0  0  0  0  0  0  0  0  0  0  0
   -0.3330   -1.1748    0.3546 N   0  0  0  0  0  0  0  0  0  0  0  0
    0.4569   -0.1496   -0.0015 C   0  0  0  0  0  0  0  0  0  0  0  0
    1.8974   -0.3509   -0.0601 C   0  0  0  0  0  0  0  0  0  0  0  0
    2.7376    0.6023   -0.3995 C   0  0  0  0  0  0  0  0  0  0  0  0
    4.1893    0.4692   -0.4783 C   0  0  0  0  0  0  0  0  0  0  0  0
    4.9776    1.5476   -0.8467 C   0  0  0  0  0  0  0  0  0  0  0  0
    6.3539    1.4754   -0.9358 C   0  0  0  0  0  0  0  0  0  0  0  0
    7.0358    0.3120   -0.6605 C   0  0  0  0  0  0  0  0  0  0  0  0
    8.4443    0.1601   -0.7250 N   0  0  0  0  0  0  0  0  0  0  0  0
    9.3778    1.1914   -1.0755 C   0  0  0  0  0  0  0  0  0  0  0  0
    9.0201   -1.1572   -0.4116 C   0  0  0  0  0  0  0  0  0  0  0  0
    6.2291   -0.7735   -0.2888 C   0  0  0  0  0  0  0  0  0  0  0  0
    4.8570   -0.6975   -0.2010 C   0  0  0  0  0  0  0  0  0  0  0  0
   -0.0882    1.0383   -0.2962 N   0  0  0  0  0  0  0  0  0  0  0  0
   -5.1914    4.3115   -0.8358 C   0  0  0  0  0  0  0  0  0  0  0  0
   -5.8095    5.5129   -1.1333 C   0  0  0  0  0  0  0  0  0  0  0  0
   -4.3595    8.7863   -3.1536 H   0  0  0  0  0  0  0  0  0  0  0  0
   -4.0260    9.0241   -1.3833 H   0  0  0  0  0  0  0  0  0  0  0  0
   -5.4115    9.8445   -2.1884 H   0  0  0  0  0  0  0  0  0  0  0  0
   -3.0443    7.2973   -1.8392 H   0  0  0  0  0  0  0  0  0  0  0  0
   -2.0084    5.1574   -1.3048 H   0  0  0  0  0  0  0  0  0  0  0  0
   -3.9624    2.0554   -0.2809 H   0  0  0  0  0  0  0  0  0  0  0  0
   -1.3061    3.3624   -0.8598 H   0  0  0  0  0  0  0  0  0  0  0  0
   -3.2884    0.2526    0.1872 H   0  0  0  0  0  0  0  0  0  0  0  0
   -3.5378   -2.1212    0.8882 H   0  0  0  0  0  0  0  0  0  0  0  0
   -0.7822   -3.4163    1.0303 H   0  0  0  0  0  0  0  0  0  0  0  0
   -4.5794   -3.6564    1.4087 H   0  0  0  0  0  0  0  0  0  0  0  0
   -5.7010   -5.7168    2.0944 H   0  0  0  0  0  0  0  0  0  0  0  0
   -3.3674   -9.6701    2.0763 H   0  0  0  0  0  0  0  0  0  0  0  0
   -3.0598   -9.0458    3.7245 H   0  0  0  0  0  0  0  0  0  0  0  0
   -4.5532   -9.9609    3.3810 H   0  0  0  0  0  0  0  0  0  0  0  0
   -1.9343   -7.7246    2.3670 H   0  0  0  0  0  0  0  0  0  0  0  0
   -0.8325   -5.6471    1.6765 H   0  0  0  0  0  0  0  0  0  0  0  0
    2.3117   -1.3205    0.1826 H   0  0  0  0  0  0  0  0  0  0  0  0
    2.2658    1.5682   -0.6382 H   0  0  0  0  0  0  0  0  0  0  0  0
    4.4683    2.4692   -1.0685 H   0  0  0  0  0  0  0  0  0  0  0  0
    6.9325    2.3528   -1.2322 H   0  0  0  0  0  0  0  0  0  0  0  0
    9.8203    1.0492   -2.0849 H   0  0  0  0  0  0  0  0  0  0  0  0
   10.2043    1.2897   -0.3331 H   0  0  0  0  0  0  0  0  0  0  0  0
    8.8689    2.1665   -1.0971 H   0  0  0  0  0  0  0  0  0  0  0  0
   10.1058   -1.1332   -0.3983 H   0  0  0  0  0  0  0  0  0  0  0  0
    8.6595   -1.4084    0.6298 H   0  0  0  0  0  0  0  0  0  0  0  0
    8.5747   -1.8971   -1.0754 H   0  0  0  0  0  0  0  0  0  0  0  0
    6.7675   -1.7040   -0.0683 H   0  0  0  0  0  0  0  0  0  0  0  0
    4.2953   -1.5780    0.0923 H   0  0  0  0  0  0  0  0  0  0  0  0
   -5.8582    3.4946   -0.5564 H   0  0  0  0  0  0  0  0  0  0  0  0
   -6.8894    5.6243   -1.0876 H   0  0  0  0  0  0  0  0  0  0  0  0
  1  2  1  0
  2  3  1  0
  3  4  2  0
  4  5  1  0
  5  6  2  0
  6  7  1  0
  7  8  2  0
  8  9  1  0
  9 10  2  0
 10 11  1  0
 11 12  1  0
 12 13  2  0
 13 14  1  0
 14 15  2  0
 15 16  1  0
 16 17  2  0
 17 18  1  0
 18 19  1  0
 17 20  1  0
 20 21  2  0
 11 22  2  0
 22 23  1  0
 23 24  1  0
 24 25  2  0
 25 26  1  0
 26 27  2  0
 27 28  1  0
 28 29  2  0
 29 30  1  0
 30 31  1  0
 30 32  1  0
 29 33  1  0
 33 34  2  0
 23 35  2  0
  6 36  1  0
 36 37  2  0
 37  3  1  0
 35  9  1  0
 21 14  1  0
 34 26  1  0
  1 38  1  0
  1 39  1  0
  1 40  1  0
  4 41  1  0
  5 42  1  0
  7 43  1  0
  8 44  1  0
 10 45  1  0
 12 46  1  0
 13 47  1  0
 15 48  1  0
 16 49  1  0
 19 50  1  0
 19 51  1  0
 19 52  1  0
 20 53  1  0
 21 54  1  0
 24 55  1  0
 25 56  1  0
 27 57  1  0
 28 58  1  0
 31 59  1  0
 31 60  1  0
 31 61  1  0
 32 62  1  0
 32 63  1  0
 32 64  1  0
 33 65  1  0
 34 66  1  0
 36 67  1  0
 37 68  1  0
M  END
