
     RDKit          3D

 72 77  0  0  0  0  0  0  0  0999 V2000
   -4.4239    4.9645    0.9595 C   0  0  0  0  0  0  0  0  0  0  0  0
   -3.7545    3.6438    0.7864 C   0  0  0  0  0  0  0  0  0  0  0  0
   -3.8466    2.6755    1.7711 C   0  0  0  0  0  0  0  0  0  0  0  0
   -3.2198    1.4428    1.6053 C   0  0  0  0  0  0  0  0  0  0  0  0
   -3.3569    0.4416    2.7029 C   0  0  0  0  0  0  0  0  0  0  0  0
   -2.5007    1.1576    0.4718 C   0  0  0  0  0  0  0  0  0  0  0  0
   -1.7938   -0.2093    0.2662 B   0  0  0  0  0  0  0  0  0  0  0  0
   -0.2466   -0.1433   -0.0231 C   0  0  0  0  0  0  0  0  0  0  0  0
    0.4959    0.8669    0.5347 C   0  0  0  0  0  0  0  0  0  0  0  0
    1.8392    0.9783    0.3218 C   0  0  0  0  0  0  0  0  0  0  0  0
    2.4915    0.0569   -0.4759 C   0  0  0  0  0  0  0  0  0  0  0  0
    3.8823    0.1658   -0.7003 N   0  0  0  0  0  0  0  0  0  0  0  0
    4.4604    0.7599   -1.7406 C   0  0  0  0  0  0  0  0  0  0  0  0
    3.9305    1.4145   -2.8574 C   0  0  0  0  0  0  0  0  0  0  0  0
    4.7598    1.9544   -3.8094 C   0  0  0  0  0  0  0  0  0  0  0  0
    6.1341    1.8818   -3.7178 C   0  0  0  0  0  0  0  0  0  0  0  0
    6.6417    1.2377   -2.6185 C   0  0  0  0  0  0  0  0  0  0  0  0
    5.8340    0.6877   -1.6498 C   0  0  0  0  0  0  0  0  0  0  0  0
    6.0910   -0.0000   -0.4684 C   0  0  0  0  0  0  0  0  0  0  0  0
    7.2821   -0.3461    0.1003 C   0  0  0  0  0  0  0  0  0  0  0  0
    7.2887   -1.0378    1.2951 C   0  0  0  0  0  0  0  0  0  0  0  0
    6.0731   -1.3468    1.8586 C   0  0  0  0  0  0  0  0  0  0  0  0
    4.8779   -1.0006    1.2898 C   0  0  0  0  0  0  0  0  0  0  0  0
    4.8437   -0.3034    0.0862 C   0  0  0  0  0  0  0  0  0  0  0  0
    1.7308   -0.9534   -1.0299 C   0  0  0  0  0  0  0  0  0  0  0  0
    0.3860   -1.0633   -0.8157 C   0  0  0  0  0  0  0  0  0  0  0  0
   -2.5589   -1.5449    0.3955 C   0  0  0  0  0  0  0  0  0  0  0  0
   -3.7467   -1.7604   -0.3140 C   0  0  0  0  0  0  0  0  0  0  0  0
   -4.2322   -0.6631   -1.1867 C   0  0  0  0  0  0  0  0  0  0  0  0
   -4.4121   -2.9693   -0.1777 C   0  0  0  0  0  0  0  0  0  0  0  0
   -3.9089   -3.9524    0.6498 C   0  0  0  0  0  0  0  0  0  0  0  0
   -4.6377   -5.2423    0.7823 C   0  0  0  0  0  0  0  0  0  0  0  0
   -2.7327   -3.7038    1.3351 C   0  0  0  0  0  0  0  0  0  0  0  0
   -2.0468   -2.5199    1.2253 C   0  0  0  0  0  0  0  0  0  0  0  0
   -0.7878   -2.2592    1.9620 C   0  0  0  0  0  0  0  0  0  0  0  0
   -2.4081    2.1133   -0.5036 C   0  0  0  0  0  0  0  0  0  0  0  0
   -1.6502    1.8802   -1.7551 C   0  0  0  0  0  0  0  0  0  0  0  0
   -3.0264    3.3335   -0.3436 C   0  0  0  0  0  0  0  0  0  0  0  0
   -5.1887    4.8443    1.7586 H   0  0  0  0  0  0  0  0  0  0  0  0
   -4.8718    5.3220    0.0090 H   0  0  0  0  0  0  0  0  0  0  0  0
   -3.6944    5.7251    1.3308 H   0  0  0  0  0  0  0  0  0  0  0  0
   -4.4168    2.9327    2.6440 H   0  0  0  0  0  0  0  0  0  0  0  0
   -3.7935   -0.4896    2.3358 H   0  0  0  0  0  0  0  0  0  0  0  0
   -3.8866    0.8696    3.5764 H   0  0  0  0  0  0  0  0  0  0  0  0
   -2.3301    0.2169    3.0578 H   0  0  0  0  0  0  0  0  0  0  0  0
    0.0406    1.6345    1.1807 H   0  0  0  0  0  0  0  0  0  0  0  0
    2.4194    1.7887    0.7723 H   0  0  0  0  0  0  0  0  0  0  0  0
    2.8432    1.4722   -2.9301 H   0  0  0  0  0  0  0  0  0  0  0  0
    4.3557    2.4646   -4.6804 H   0  0  0  0  0  0  0  0  0  0  0  0
    6.8124    2.2997   -4.4555 H   0  0  0  0  0  0  0  0  0  0  0  0
    7.7222    1.1597   -2.5109 H   0  0  0  0  0  0  0  0  0  0  0  0
    8.2400   -0.1054   -0.3389 H   0  0  0  0  0  0  0  0  0  0  0  0
    8.2138   -1.3324    1.7812 H   0  0  0  0  0  0  0  0  0  0  0  0
    6.0945   -1.8881    2.7928 H   0  0  0  0  0  0  0  0  0  0  0  0
    3.9144   -1.2456    1.7376 H   0  0  0  0  0  0  0  0  0  0  0  0
    2.2588   -1.6792   -1.6620 H   0  0  0  0  0  0  0  0  0  0  0  0
   -0.2097   -1.8752   -1.2645 H   0  0  0  0  0  0  0  0  0  0  0  0
   -4.5897    0.2159   -0.6326 H   0  0  0  0  0  0  0  0  0  0  0  0
   -5.1545   -1.0713   -1.6998 H   0  0  0  0  0  0  0  0  0  0  0  0
   -3.5373   -0.4278   -2.0158 H   0  0  0  0  0  0  0  0  0  0  0  0
   -5.3215   -3.0871   -0.7440 H   0  0  0  0  0  0  0  0  0  0  0  0
   -3.9996   -6.0188    1.2450 H   0  0  0  0  0  0  0  0  0  0  0  0
   -5.5366   -5.1157    1.4255 H   0  0  0  0  0  0  0  0  0  0  0  0
   -5.0056   -5.5611   -0.2284 H   0  0  0  0  0  0  0  0  0  0  0  0
   -2.3727   -4.5006    1.9734 H   0  0  0  0  0  0  0  0  0  0  0  0
   -0.6101   -1.2146    2.2089 H   0  0  0  0  0  0  0  0  0  0  0  0
    0.0835   -2.7693    1.5029 H   0  0  0  0  0  0  0  0  0  0  0  0
   -0.9159   -2.7847    2.9565 H   0  0  0  0  0  0  0  0  0  0  0  0
   -0.6691    2.3842   -1.6375 H   0  0  0  0  0  0  0  0  0  0  0  0
   -2.1961    2.2901   -2.6421 H   0  0  0  0  0  0  0  0  0  0  0  0
   -1.4955    0.8204   -1.9469 H   0  0  0  0  0  0  0  0  0  0  0  0
   -2.9543    4.0888   -1.1120 H   0  0  0  0  0  0  0  0  0  0  0  0
  1  2  1  0
  2  3  2  0
  3  4  1  0
  4  5  1  0
  4  6  2  0
  6  7  1  0
  7  8  1  0
  8  9  2  0
  9 10  1  0
 10 11  2  0
 11 12  1  0
 12 13  1  0
 13 14  2  0
 14 15  1  0
 15 16  2  0
 16 17  1  0
 17 18  2  0
 18 19  1  0
 19 20  2  0
 20 21  1  0
 21 22  2  0
 22 23  1  0
 23 24  2  0
 11 25  1  0
 25 26  2  0
  7 27  1  0
 27 28  2  0
 28 29  1  0
 28 30  1  0
 30 31  2  0
 31 32  1  0
 31 33  1  0
 33 34  2  0
 34 35  1  0
  6 36  1  0
 36 37  1  0
 36 38  2  0
 38  2  1  0
 26  8  1  0
 34 27  1  0
 24 12  1  0
 18 13  1  0
 24 19  1  0
  1 39  1  0
  1 40  1  0
  1 41  1  0
  3 42  1  0
  5 43  1  0
  5 44  1  0
  5 45  1  0
  9 46  1  0
 10 47  1  0
 14 48  1  0
 15 49  1  0
 16 50  1  0
 17 51  1  0
 20 52  1  0
 21 53  1  0
 22 54  1  0
 23 55  1  0
 25 56  1  0
 26 57  1  0
 29 58  1  0
 29 59  1  0
 29 60  1  0
 30 61  1  0
 32 62  1  0
 32 63  1  0
 32 64  1  0
 33 65  1  0
 35 66  1  0
 35 67  1  0
 35 68  1  0
 37 69  1  0
 37 70  1  0
 37 71  1  0
 38 72  1  0
M  END
