
     RDKit          3D

 60 66  0  0  0  0  0  0  0  0999 V2000
    6.3328    0.4209   -1.5608 C   0  0  0  0  0  0  0  0  0  0  0  0
    5.9854   -0.8227   -1.1819 C   0  0  0  0  0  0  0  0  0  0  0  0
    4.9386   -1.1708   -0.1985 C   0  0  0  0  0  0  0  0  0  0  0  0
    5.0766   -2.4406    0.3276 C   0  0  0  0  0  0  0  0  0  0  0  0
    4.2119   -2.8879    1.2989 C   0  0  0  0  0  0  0  0  0  0  0  0
    3.1882   -2.0857    1.7741 C   0  0  0  0  0  0  0  0  0  0  0  0
    3.0200   -0.8341    1.2831 C   0  0  0  0  0  0  0  0  0  0  0  0
    3.8990   -0.3998    0.3011 C   0  0  0  0  0  0  0  0  0  0  0  0
    3.5379    0.9463   -0.1243 C   0  0  0  0  0  0  0  0  0  0  0  0
    2.3033    1.2901   -0.2850 C   0  0  0  0  0  0  0  0  0  0  0  0
    1.0727    0.5648   -0.1325 C   0  0  0  0  0  0  0  0  0  0  0  0
    0.8689   -0.6924   -0.6569 C   0  0  0  0  0  0  0  0  0  0  0  0
   -0.3407   -1.3331   -0.4809 C   0  0  0  0  0  0  0  0  0  0  0  0
   -1.3863   -0.7340    0.2262 C   0  0  0  0  0  0  0  0  0  0  0  0
   -2.6193   -1.4092    0.4939 C   0  0  0  0  0  0  0  0  0  0  0  0
   -3.8463   -1.0666    0.1742 C   0  0  0  0  0  0  0  0  0  0  0  0
   -4.3736    0.0768   -0.5511 C   0  0  0  0  0  0  0  0  0  0  0  0
   -3.7985    1.1198   -1.2072 C   0  0  0  0  0  0  0  0  0  0  0  0
   -4.5499    2.1039   -1.8552 C   0  0  0  0  0  0  0  0  0  0  0  0
   -5.9190    2.0577   -1.8580 C   0  0  0  0  0  0  0  0  0  0  0  0
   -6.5002    1.0000   -1.1949 C   0  0  0  0  0  0  0  0  0  0  0  0
   -5.7702    0.0294   -0.5556 C   0  0  0  0  0  0  0  0  0  0  0  0
   -6.1951   -1.1561    0.1694 C   0  0  0  0  0  0  0  0  0  0  0  0
   -7.4454   -1.6805    0.4646 C   0  0  0  0  0  0  0  0  0  0  0  0
   -7.5839   -2.8469    1.1852 C   0  0  0  0  0  0  0  0  0  0  0  0
   -6.4469   -3.4898    1.6116 C   0  0  0  0  0  0  0  0  0  0  0  0
   -5.2089   -2.9614    1.3135 C   0  0  0  0  0  0  0  0  0  0  0  0
   -5.0665   -1.8013    0.5969 C   0  0  0  0  0  0  0  0  0  0  0  0
   -1.1735    0.5210    0.7450 C   0  0  0  0  0  0  0  0  0  0  0  0
    0.0273    1.1318    0.5586 C   0  0  0  0  0  0  0  0  0  0  0  0
    4.5689    1.9521   -0.4861 C   0  0  0  0  0  0  0  0  0  0  0  0
    4.1776    3.2103   -0.1384 C   0  0  0  0  0  0  0  0  0  0  0  0
    5.0018    4.2552   -0.4160 C   0  0  0  0  0  0  0  0  0  0  0  0
    6.2179    4.0180   -1.0442 C   0  0  0  0  0  0  0  0  0  0  0  0
    6.6120    2.7516   -1.3940 C   0  0  0  0  0  0  0  0  0  0  0  0
    5.7846    1.6922   -1.1169 C   0  0  0  0  0  0  0  0  0  0  0  0
    7.1302    0.4439   -2.2883 H   0  0  0  0  0  0  0  0  0  0  0  0
    6.4840   -1.6629   -1.6020 H   0  0  0  0  0  0  0  0  0  0  0  0
    5.8685   -3.0724   -0.0335 H   0  0  0  0  0  0  0  0  0  0  0  0
    4.2978   -3.8861    1.7298 H   0  0  0  0  0  0  0  0  0  0  0  0
    2.4901   -2.4196    2.5447 H   0  0  0  0  0  0  0  0  0  0  0  0
    2.2764   -0.1358    1.6389 H   0  0  0  0  0  0  0  0  0  0  0  0
    2.1520    2.3472   -0.6231 H   0  0  0  0  0  0  0  0  0  0  0  0
    1.7053   -1.1060   -1.2053 H   0  0  0  0  0  0  0  0  0  0  0  0
   -0.4916   -2.3071   -0.8900 H   0  0  0  0  0  0  0  0  0  0  0  0
   -2.5099   -2.3703    1.0554 H   0  0  0  0  0  0  0  0  0  0  0  0
   -2.7309    1.1707   -1.2505 H   0  0  0  0  0  0  0  0  0  0  0  0
   -4.0561    2.9202   -2.3654 H   0  0  0  0  0  0  0  0  0  0  0  0
   -6.5122    2.8103   -2.3533 H   0  0  0  0  0  0  0  0  0  0  0  0
   -7.6005    0.9858   -1.2134 H   0  0  0  0  0  0  0  0  0  0  0  0
   -8.3160   -1.1472    0.1132 H   0  0  0  0  0  0  0  0  0  0  0  0
   -8.5732   -3.2509    1.4116 H   0  0  0  0  0  0  0  0  0  0  0  0
   -6.5167   -4.4080    2.1800 H   0  0  0  0  0  0  0  0  0  0  0  0
   -4.3151   -3.4694    1.6511 H   0  0  0  0  0  0  0  0  0  0  0  0
   -1.9757    1.0364    1.3125 H   0  0  0  0  0  0  0  0  0  0  0  0
    0.1734    2.1296    0.9806 H   0  0  0  0  0  0  0  0  0  0  0  0
    3.2363    3.3420    0.3525 H   0  0  0  0  0  0  0  0  0  0  0  0
    4.7461    5.2662   -0.1652 H   0  0  0  0  0  0  0  0  0  0  0  0
    6.8696    4.8399   -1.2651 H   0  0  0  0  0  0  0  0  0  0  0  0
    7.5669    2.6141   -1.8823 H   0  0  0  0  0  0  0  0  0  0  0  0
  1  2  2  0
  2  3  1  0
  3  4  2  0
  4  5  1  0
  5  6  2  0
  6  7  1  0
  7  8  2  0
  8  9  1  0
  9 10  2  3
 10 11  1  0
 11 12  2  0
 12 13  1  0
 13 14  2  0
 14 15  1  0
 15 16  2  3
 16 17  1  0
 17 18  2  0
 18 19  1  0
 19 20  2  0
 20 21  1  0
 21 22  2  0
 22 23  1  0
 23 24  2  0
 24 25  1  0
 25 26  2  0
 26 27  1  0
 27 28  2  0
 14 29  1  0
 29 30  2  0
  9 31  1  0
 31 32  2  0
 32 33  1  0
 33 34  2  0
 34 35  1  0
 35 36  2  0
 36  1  1  0
  8  3  1  0
 30 11  1  0
 36 31  1  0
 28 16  1  0
 22 17  1  0
 28 23  1  0
  1 37  1  0
  2 38  1  0
  4 39  1  0
  5 40  1  0
  6 41  1  0
  7 42  1  0
 10 43  1  0
 12 44  1  0
 13 45  1  0
 15 46  1  0
 18 47  1  0
 19 48  1  0
 20 49  1  0
 21 50  1  0
 24 51  1  0
 25 52  1  0
 26 53  1  0
 27 54  1  0
 29 55  1  0
 30 56  1  0
 32 57  1  0
 33 58  1  0
 34 59  1  0
 35 60  1  0
M  END
