
     RDKit          3D

 26 28  0  0  0  0  0  0  0  0999 V2000
   -2.3014    3.3420    1.7971 N   0  0  0  0  0  0  0  0  0  0  0  0
   -1.6465    2.4863    1.3781 C   0  0  0  0  0  0  0  0  0  0  0  0
   -0.8276    1.4258    0.8313 C   0  0  0  0  0  0  0  0  0  0  0  0
    0.4872    1.3379    1.2249 C   0  0  0  0  0  0  0  0  0  0  0  0
    1.0681    2.2692    2.1628 C   0  0  0  0  0  0  0  0  0  0  0  0
    1.5324    3.0115    2.9371 N   0  0  0  0  0  0  0  0  0  0  0  0
    1.2656    0.3320    0.7069 C   0  0  0  0  0  0  0  0  0  0  0  0
    2.5919    0.2082    1.0762 C   0  0  0  0  0  0  0  0  0  0  0  0
    3.3937   -0.7675    0.5901 C   0  0  0  0  0  0  0  0  0  0  0  0
    2.8459   -1.6658   -0.3100 C   0  0  0  0  0  0  0  0  0  0  0  0
    1.5290   -1.5849   -0.7099 C   0  0  0  0  0  0  0  0  0  0  0  0
    0.7295   -0.5920   -0.2094 C   0  0  0  0  0  0  0  0  0  0  0  0
   -0.5922   -0.4938   -0.5974 C   0  0  0  0  0  0  0  0  0  0  0  0
   -1.1351   -1.3872   -1.4919 C   0  0  0  0  0  0  0  0  0  0  0  0
   -2.4645   -1.2656   -1.8642 C   0  0  0  0  0  0  0  0  0  0  0  0
   -3.2761   -0.2657   -1.3625 C   0  0  0  0  0  0  0  0  0  0  0  0
   -2.6952    0.6091   -0.4692 C   0  0  0  0  0  0  0  0  0  0  0  0
   -1.3820    0.5353   -0.0650 C   0  0  0  0  0  0  0  0  0  0  0  0
    2.9758    0.9453    1.7917 H   0  0  0  0  0  0  0  0  0  0  0  0
    4.4114   -0.8100    0.9149 H   0  0  0  0  0  0  0  0  0  0  0  0
    3.5196   -2.4394   -0.6821 H   0  0  0  0  0  0  0  0  0  0  0  0
    1.1614   -2.2983   -1.4010 H   0  0  0  0  0  0  0  0  0  0  0  0
   -0.6036   -2.1993   -1.9444 H   0  0  0  0  0  0  0  0  0  0  0  0
   -2.9343   -1.9513   -2.5695 H   0  0  0  0  0  0  0  0  0  0  0  0
   -4.3206   -0.1726   -1.6568 H   0  0  0  0  0  0  0  0  0  0  0  0
   -3.3321    1.3908   -0.0778 H   0  0  0  0  0  0  0  0  0  0  0  0
  1  2  3  0
  2  3  1  0
  3  4  2  0
  4  5  1  0
  5  6  3  0
  4  7  1  0
  7  8  2  0
  8  9  1  0
  9 10  2  0
 10 11  1  0
 11 12  2  0
 12 13  1  0
 13 14  2  0
 14 15  1  0
 15 16  2  0
 16 17  1  0
 17 18  2  0
 18  3  1  0
 12  7  1  0
 18 13  1  0
  8 19  1  0
  9 20  1  0
 10 21  1  0
 11 22  1  0
 14 23  1  0
 15 24  1  0
 16 25  1  0
 17 26  1  0
M  END
