
     RDKit          3D

 86 93  0  0  0  0  0  0  0  0999 V2000
   -7.0791    0.0895   -0.5348 C   0  0  0  0  0  0  0  0  0  0  0  0
   -6.8973    0.4081   -2.0955 C   0  0  0  0  0  0  0  0  0  0  0  0
   -8.2503    0.7859   -2.5765 C   0  0  0  0  0  0  0  0  0  0  0  0
   -6.3795   -0.8604   -2.5972 C   0  0  0  0  0  0  0  0  0  0  0  0
   -6.8786   -1.7865   -3.3426 C   0  0  0  0  0  0  0  0  0  0  0  0
   -6.5161   -3.1043   -3.5813 C   0  0  0  0  0  0  0  0  0  0  0  0
   -5.3191   -3.4957   -2.7980 C   0  0  0  0  0  0  0  0  0  0  0  0
   -4.7871   -2.5621   -2.0392 C   0  0  0  0  0  0  0  0  0  0  0  0
   -5.1233   -1.2568   -1.8021 C   0  0  0  0  0  0  0  0  0  0  0  0
   -4.4018   -0.2548   -1.2426 N   0  0  0  0  0  0  0  0  0  0  0  0
   -3.1708   -0.6771   -0.4371 C   0  0  0  0  0  0  0  0  0  0  0  0
   -3.2402   -0.3103    0.8374 C   0  0  0  0  0  0  0  0  0  0  0  0
   -2.2421   -0.9679    1.5197 C   0  0  0  0  0  0  0  0  0  0  0  0
   -1.3658   -1.7880    1.2039 C   0  0  0  0  0  0  0  0  0  0  0  0
   -0.3719   -2.4389    2.0897 C   0  0  0  0  0  0  0  0  0  0  0  0
    0.4193   -2.9108    2.7704 C   0  0  0  0  0  0  0  0  0  0  0  0
    1.8076   -2.3303    3.2293 C   0  0  0  0  0  0  0  0  0  0  0  0
    2.9221   -1.8448    3.5884 N   0  0  0  0  0  0  0  0  0  0  0  0
    0.2631   -4.3045    3.3496 C   0  0  0  0  0  0  0  0  0  0  0  0
    0.1240   -5.4405    3.8357 N   0  0  0  0  0  0  0  0  0  0  0  0
    0.6274   -0.9734    1.6707 C   0  0  0  0  0  0  0  0  0  0  0  0
    1.0228   -0.2807    2.7096 C   0  0  0  0  0  0  0  0  0  0  0  0
    2.2188    0.6076    2.3792 C   0  0  0  0  0  0  0  0  0  0  0  0
    2.6040    0.5241    1.1595 C   0  0  0  0  0  0  0  0  0  0  0  0
    4.0933    0.8062    0.9675 N   0  0  0  0  0  0  0  0  0  0  0  0
    4.6665    2.0197    0.9429 C   0  0  0  0  0  0  0  0  0  0  0  0
    3.9627    3.1873    0.8598 C   0  0  0  0  0  0  0  0  0  0  0  0
    4.5775    4.4264    0.6142 C   0  0  0  0  0  0  0  0  0  0  0  0
    5.8982    4.4706    0.4568 C   0  0  0  0  0  0  0  0  0  0  0  0
    6.7059    3.3696    0.5156 C   0  0  0  0  0  0  0  0  0  0  0  0
    6.1268    2.1492    0.7429 C   0  0  0  0  0  0  0  0  0  0  0  0
    6.8833    0.9041    0.8726 C   0  0  0  0  0  0  0  0  0  0  0  0
    7.5187    0.8097    2.3005 C   0  0  0  0  0  0  0  0  0  0  0  0
    8.1560    1.0917    0.0301 C   0  0  0  0  0  0  0  0  0  0  0  0
    6.1747   -0.2342    0.5561 C   0  0  0  0  0  0  0  0  0  0  0  0
    6.9176   -1.4813   -0.1393 C   0  0  0  0  0  0  0  0  0  0  0  0
    6.0611   -2.3611   -0.2729 C   0  0  0  0  0  0  0  0  0  0  0  0
    4.8241   -2.7645   -0.1103 C   0  0  0  0  0  0  0  0  0  0  0  0
    4.1030   -1.5488    0.5488 C   0  0  0  0  0  0  0  0  0  0  0  0
    4.8936   -0.4835    0.7654 C   0  0  0  0  0  0  0  0  0  0  0  0
    2.1818   -0.1432    0.0667 C   0  0  0  0  0  0  0  0  0  0  0  0
    1.0044   -1.0309    0.4172 C   0  0  0  0  0  0  0  0  0  0  0  0
   -1.3346   -2.1398   -0.2659 C   0  0  0  0  0  0  0  0  0  0  0  0
   -2.3328   -1.4784   -1.0838 C   0  0  0  0  0  0  0  0  0  0  0  0
   -4.7047    1.1226   -1.3260 C   0  0  0  0  0  0  0  0  0  0  0  0
   -3.7245    2.1040   -0.9674 C   0  0  0  0  0  0  0  0  0  0  0  0
   -4.1908    3.3227   -1.4763 C   0  0  0  0  0  0  0  0  0  0  0  0
   -5.1583    3.7275   -2.0862 C   0  0  0  0  0  0  0  0  0  0  0  0
   -6.2057    2.7787   -2.4684 C   0  0  0  0  0  0  0  0  0  0  0  0
   -5.8969    1.4946   -2.0475 C   0  0  0  0  0  0  0  0  0  0  0  0
   -6.1480    0.4330   -0.0530 H   0  0  0  0  0  0  0  0  0  0  0  0
   -7.9881    0.5894   -0.2179 H   0  0  0  0  0  0  0  0  0  0  0  0
   -7.0855   -1.0013   -0.4786 H   0  0  0  0  0  0  0  0  0  0  0  0
   -8.9752    0.7527   -1.6551 H   0  0  0  0  0  0  0  0  0  0  0  0
   -8.7266   -0.0408   -3.1839 H   0  0  0  0  0  0  0  0  0  0  0  0
   -8.3963    1.6806   -3.1127 H   0  0  0  0  0  0  0  0  0  0  0  0
   -7.8214   -1.5256   -3.9326 H   0  0  0  0  0  0  0  0  0  0  0  0
   -6.9335   -3.8151   -4.1722 H   0  0  0  0  0  0  0  0  0  0  0  0
   -5.0299   -4.5144   -2.9377 H   0  0  0  0  0  0  0  0  0  0  0  0
   -3.9180   -2.9573   -1.3426 H   0  0  0  0  0  0  0  0  0  0  0  0
   -3.9038    0.3794    1.3198 H   0  0  0  0  0  0  0  0  0  0  0  0
   -2.2271   -0.5387    2.6422 H   0  0  0  0  0  0  0  0  0  0  0  0
    0.6210   -0.2425    3.6765 H   0  0  0  0  0  0  0  0  0  0  0  0
    2.5484    1.1821    3.2022 H   0  0  0  0  0  0  0  0  0  0  0  0
    2.8589    3.1858    0.9838 H   0  0  0  0  0  0  0  0  0  0  0  0
    3.9136    5.3263    0.5471 H   0  0  0  0  0  0  0  0  0  0  0  0
    6.3746    5.4575    0.3008 H   0  0  0  0  0  0  0  0  0  0  0  0
    7.7437    3.4386    0.4112 H   0  0  0  0  0  0  0  0  0  0  0  0
    6.8100    1.1687    3.0428 H   0  0  0  0  0  0  0  0  0  0  0  0
    8.4431    1.4231    2.3102 H   0  0  0  0  0  0  0  0  0  0  0  0
    7.8012   -0.2319    2.4431 H   0  0  0  0  0  0  0  0  0  0  0  0
    7.8937    1.5416   -0.9317 H   0  0  0  0  0  0  0  0  0  0  0  0
    8.8312    1.8196    0.6698 H   0  0  0  0  0  0  0  0  0  0  0  0
    8.6001    0.1199    0.0262 H   0  0  0  0  0  0  0  0  0  0  0  0
    7.8817   -1.3575   -0.3841 H   0  0  0  0  0  0  0  0  0  0  0  0
    6.6173   -3.3685   -0.8207 H   0  0  0  0  0  0  0  0  0  0  0  0
    4.2389   -3.5690   -0.2829 H   0  0  0  0  0  0  0  0  0  0  0  0
    3.1376   -1.8080    0.7625 H   0  0  0  0  0  0  0  0  0  0  0  0
    2.5478   -0.1375   -0.9113 H   0  0  0  0  0  0  0  0  0  0  0  0
    0.7308   -1.5695   -0.4172 H   0  0  0  0  0  0  0  0  0  0  0  0
   -0.7011   -2.8891   -0.5833 H   0  0  0  0  0  0  0  0  0  0  0  0
   -2.2998   -1.6766   -2.1064 H   0  0  0  0  0  0  0  0  0  0  0  0
   -2.8860    1.8268   -0.4536 H   0  0  0  0  0  0  0  0  0  0  0  0
   -3.3252    4.1181   -1.2050 H   0  0  0  0  0  0  0  0  0  0  0  0
   -5.4231    4.7718   -2.4343 H   0  0  0  0  0  0  0  0  0  0  0  0
   -6.9921    3.0817   -2.9976 H   0  0  0  0  0  0  0  0  0  0  0  0
  1  2  1  0
  2  3  1  0
  2  4  1  0
  4  5  2  0
  5  6  1  0
  6  7  2  0
  7  8  1  0
  8  9  2  0
  9 10  1  0
 10 11  1  0
 11 12  2  0
 12 13  1  0
 13 14  2  0
 14 15  1  0
 15 16  2  3
 16 17  1  0
 17 18  3  0
 16 19  1  0
 19 20  3  0
 15 21  1  0
 21 22  2  0
 22 23  1  0
 23 24  2  0
 24 25  1  0
 25 26  1  0
 26 27  2  0
 27 28  1  0
 28 29  2  0
 29 30  1  0
 30 31  2  0
 31 32  1  0
 32 33  1  0
 32 34  1  0
 32 35  1  0
 35 36  2  0
 36 37  1  0
 37 38  2  0
 38 39  1  0
 39 40  2  0
 24 41  1  0
 41 42  2  0
 14 43  1  0
 43 44  2  0
 10 45  1  0
 45 46  2  0
 46 47  1  0
 47 48  2  0
 48 49  1  0
 49 50  2  0
 50  2  1  0
  9  4  1  0
 44 11  1  0
 50 45  1  0
 42 21  1  0
 40 25  1  0
 31 26  1  0
 40 35  1  0
  1 51  1  0
  1 52  1  0
  1 53  1  0
  3 54  1  0
  3 55  1  0
  3 56  1  0
  5 57  1  0
  6 58  1  0
  7 59  1  0
  8 60  1  0
 12 61  1  0
 13 62  1  0
 22 63  1  0
 23 64  1  0
 27 65  1  0
 28 66  1  0
 29 67  1  0
 30 68  1  0
 33 69  1  0
 33 70  1  0
 33 71  1  0
 34 72  1  0
 34 73  1  0
 34 74  1  0
 36 75  1  0
 37 76  1  0
 38 77  1  0
 39 78  1  0
 41 79  1  0
 42 80  1  0
 43 81  1  0
 44 82  1  0
 46 83  1  0
 47 84  1  0
 48 85  1  0
 49 86  1  0
M  END
