
     RDKit          3D

 87 95  0  0  0  0  0  0  0  0999 V2000
   -0.1037    5.0692    1.2105 C   0  0  0  0  0  0  0  0  0  0  0  0
    0.5440    3.8540    0.6036 C   0  0  0  0  0  0  0  0  0  0  0  0
    1.7568    3.7974    0.1375 N   0  0  0  0  0  4  0  0  0  0  0  0
    1.9894    2.5000   -0.3404 C   0  0  0  0  0  0  0  0  0  0  0  0
    3.1424    2.1629   -0.8934 C   0  0  0  0  0  0  0  0  0  0  0  0
    3.3035    0.7901   -1.3617 C   0  0  0  0  0  0  0  0  0  0  0  0
    2.9775   -0.2617   -0.5275 C   0  0  0  0  0  0  0  0  0  0  0  0
    3.0832   -1.5794   -0.9247 C   0  0  0  0  0  0  0  0  0  0  0  0
    3.5257   -1.9056   -2.1886 C   0  0  0  0  0  0  0  0  0  0  0  0
    3.6784   -3.3230   -2.5793 C   0  0  0  0  0  0  0  0  0  0  0  0
    3.5330   -3.6652   -3.7798 O   0  0  0  0  0  0  0  0  0  0  0  0
    3.9997   -4.3471   -1.5985 C   0  0  0  0  0  0  0  0  0  0  0  0
    4.6898   -4.0395   -0.4444 C   0  0  0  0  0  0  0  0  0  0  0  0
    5.0004   -4.9936    0.5259 C   0  0  0  0  0  0  0  0  0  0  0  0
    4.6164   -6.3064    0.3535 C   0  0  0  0  0  0  0  0  0  0  0  0
    3.9265   -6.6262   -0.7962 C   0  0  0  0  0  0  0  0  0  0  0  0
    3.6250   -5.6668   -1.7509 C   0  0  0  0  0  0  0  0  0  0  0  0
    3.8538   -0.8675   -3.0306 C   0  0  0  0  0  0  0  0  0  0  0  0
    3.7461    0.4668   -2.6270 C   0  0  0  0  0  0  0  0  0  0  0  0
    4.1944    3.1586   -1.0006 C   0  0  0  0  0  0  0  0  0  0  0  0
    5.4744    3.0099   -1.5459 C   0  0  0  0  0  0  0  0  0  0  0  0
    6.0930    4.2401   -1.4112 C   0  0  0  0  0  0  0  0  0  0  0  0
    5.2104    5.1149   -0.7995 C   0  0  0  0  0  0  0  0  0  0  0  0
    5.5005    6.5456   -0.4800 C   0  0  0  0  0  0  0  0  0  0  0  0
    4.0939    4.4290   -0.5726 N   0  0  0  0  0  0  0  0  0  0  0  0
    2.8023    4.8835    0.0767 B   0  0  0  0  0  4  0  0  0  0  0  0
    3.1101    5.3457    1.4252 F   0  0  0  0  0  0  0  0  0  0  0  0
    2.2302    6.0224   -0.6259 F   0  0  0  0  0  0  0  0  0  0  0  0
    0.7704    1.7510   -0.1155 C   0  0  0  0  0  0  0  0  0  0  0  0
   -0.1223    2.5813    0.4655 C   0  0  0  0  0  0  0  0  0  0  0  0
   -1.4619    2.1444    0.8161 C   0  0  0  0  0  0  0  0  0  0  0  0
   -2.0201    0.8837    0.6052 C   0  0  0  0  0  0  0  0  0  0  0  0
   -3.3169    0.8483    1.0738 C   0  0  0  0  0  0  0  0  0  0  0  0
   -3.5580    2.0628    1.5669 N   0  0  0  0  0  0  0  0  0  0  0  0
   -2.4522    2.8586    1.4208 C   0  0  0  0  0  0  0  0  0  0  0  0
   -4.8952    2.4149    2.1870 B   0  0  0  0  0  4  0  0  0  0  0  0
   -4.6257    2.7102    3.6070 F   0  0  0  0  0  0  0  0  0  0  0  0
   -5.5024    3.5747    1.5412 F   0  0  0  0  0  0  0  0  0  0  0  0
   -5.8845    1.2625    2.1898 N   0  0  0  0  0  4  0  0  0  0  0  0
   -7.1194    1.1872    2.6361 C   0  0  0  0  0  0  0  0  0  0  0  0
   -7.6595   -0.1313    2.4121 C   0  0  0  0  0  0  0  0  0  0  0  0
   -6.7270   -0.8472    1.8238 C   0  0  0  0  0  0  0  0  0  0  0  0
   -5.5283    0.0061    1.6454 C   0  0  0  0  0  0  0  0  0  0  0  0
   -4.3397   -0.2184    1.1142 C   0  0  0  0  0  0  0  0  0  0  0  0
   -3.9942   -1.5348    0.5982 C   0  0  0  0  0  0  0  0  0  0  0  0
   -4.0084   -2.6641    1.3923 C   0  0  0  0  0  0  0  0  0  0  0  0
   -4.3321   -2.5327    2.8322 C   0  0  0  0  0  0  0  0  0  0  0  0
   -3.7138   -3.9022    0.8738 C   0  0  0  0  0  0  0  0  0  0  0  0
   -3.3975   -4.0328   -0.4555 C   0  0  0  0  0  0  0  0  0  0  0  0
   -3.0777   -5.3598   -1.0271 C   0  0  0  0  0  0  0  0  0  0  0  0
   -3.3870   -2.8956   -1.2387 C   0  0  0  0  0  0  0  0  0  0  0  0
   -3.6799   -1.6553   -0.7326 C   0  0  0  0  0  0  0  0  0  0  0  0
   -3.6748   -0.4869   -1.6366 C   0  0  0  0  0  0  0  0  0  0  0  0
   -0.3631    4.9011    2.2638 H   0  0  0  0  0  0  0  0  0  0  0  0
   -0.9731    5.3457    0.6153 H   0  0  0  0  0  0  0  0  0  0  0  0
    0.6584    5.9076    1.2346 H   0  0  0  0  0  0  0  0  0  0  0  0
    2.6341   -0.0401    0.4843 H   0  0  0  0  0  0  0  0  0  0  0  0
    2.7986   -2.3965   -0.2439 H   0  0  0  0  0  0  0  0  0  0  0  0
    5.0239   -3.0048   -0.2849 H   0  0  0  0  0  0  0  0  0  0  0  0
    5.5474   -4.7235    1.4301 H   0  0  0  0  0  0  0  0  0  0  0  0
    4.8484   -7.0656    1.1001 H   0  0  0  0  0  0  0  0  0  0  0  0
    3.6323   -7.6466   -0.9204 H   0  0  0  0  0  0  0  0  0  0  0  0
    3.0807   -5.9064   -2.6601 H   0  0  0  0  0  0  0  0  0  0  0  0
    4.2006   -1.1146   -4.0223 H   0  0  0  0  0  0  0  0  0  0  0  0
    4.0083    1.2627   -3.3054 H   0  0  0  0  0  0  0  0  0  0  0  0
    5.8691    2.0898   -1.9803 H   0  0  0  0  0  0  0  0  0  0  0  0
    7.0966    4.4712   -1.7319 H   0  0  0  0  0  0  0  0  0  0  0  0
    6.1969    6.6770    0.3484 H   0  0  0  0  0  0  0  0  0  0  0  0
    4.5547    7.1106   -0.3057 H   0  0  0  0  0  0  0  0  0  0  0  0
    5.9774    7.0519   -1.3606 H   0  0  0  0  0  0  0  0  0  0  0  0
    0.5913    0.7272   -0.3650 H   0  0  0  0  0  0  0  0  0  0  0  0
   -1.4879    0.0722    0.1427 H   0  0  0  0  0  0  0  0  0  0  0  0
   -2.4308    3.8762    1.7507 H   0  0  0  0  0  0  0  0  0  0  0  0
   -7.6095    2.0265    3.0975 H   0  0  0  0  0  0  0  0  0  0  0  0
   -8.6671   -0.4691    2.6848 H   0  0  0  0  0  0  0  0  0  0  0  0
   -6.8077   -1.8785    1.5159 H   0  0  0  0  0  0  0  0  0  0  0  0
   -4.2526   -1.4772    3.1804 H   0  0  0  0  0  0  0  0  0  0  0  0
   -3.5776   -3.0861    3.4676 H   0  0  0  0  0  0  0  0  0  0  0  0
   -5.3037   -3.0059    3.0695 H   0  0  0  0  0  0  0  0  0  0  0  0
   -3.7354   -4.7758    1.5354 H   0  0  0  0  0  0  0  0  0  0  0  0
   -3.8164   -5.5607   -1.8347 H   0  0  0  0  0  0  0  0  0  0  0  0
   -3.2124   -6.1432   -0.2497 H   0  0  0  0  0  0  0  0  0  0  0  0
   -2.0366   -5.4053   -1.3703 H   0  0  0  0  0  0  0  0  0  0  0  0
   -3.1329   -3.0361   -2.2825 H   0  0  0  0  0  0  0  0  0  0  0  0
   -4.2058    0.3558   -1.1604 H   0  0  0  0  0  0  0  0  0  0  0  0
   -2.6711   -0.1929   -1.9704 H   0  0  0  0  0  0  0  0  0  0  0  0
   -4.3241   -0.7789   -2.5225 H   0  0  0  0  0  0  0  0  0  0  0  0
  1  2  1  0
  2  3  2  0
  3  4  1  0
  4  5  2  0
  5  6  1  0
  6  7  2  0
  7  8  1  0
  8  9  2  0
  9 10  1  0
 10 11  2  0
 10 12  1  0
 12 13  2  0
 13 14  1  0
 14 15  2  0
 15 16  1  0
 16 17  2  0
  9 18  1  0
 18 19  2  0
  5 20  1  0
 20 21  2  0
 21 22  1  0
 22 23  2  0
 23 24  1  0
 23 25  1  0
 25 26  1  0
 26 27  1  0
 26 28  1  0
  4 29  1  0
 29 30  2  0
 30 31  1  0
 31 32  1  0
 32 33  2  0
 33 34  1  0
 34 35  1  0
 34 36  1  0
 36 37  1  0
 36 38  1  0
 36 39  1  0
 39 40  2  0
 40 41  1  0
 41 42  2  0
 42 43  1  0
 43 44  2  0
 44 45  1  0
 45 46  2  0
 46 47  1  0
 46 48  1  0
 48 49  2  0
 49 50  1  0
 49 51  1  0
 51 52  2  0
 52 53  1  0
 30  2  1  0
 35 31  2  0
 43 39  1  0
 52 45  1  0
 26  3  1  0
 44 33  1  0
 19  6  1  0
 25 20  1  0
 17 12  1  0
  1 54  1  0
  1 55  1  0
  1 56  1  0
  7 57  1  0
  8 58  1  0
 13 59  1  0
 14 60  1  0
 15 61  1  0
 16 62  1  0
 17 63  1  0
 18 64  1  0
 19 65  1  0
 21 66  1  0
 22 67  1  0
 24 68  1  0
 24 69  1  0
 24 70  1  0
 29 71  1  0
 32 72  1  0
 35 73  1  0
 40 74  1  0
 41 75  1  0
 42 76  1  0
 47 77  1  0
 47 78  1  0
 47 79  1  0
 48 80  1  0
 50 81  1  0
 50 82  1  0
 50 83  1  0
 51 84  1  0
 53 85  1  0
 53 86  1  0
 53 87  1  0
M  CHG  4   3   1  26  -1  36  -1  39   1
M  END
