
     RDKit          3D

 62 67  0  0  0  0  0  0  0  0999 V2000
   11.8063    0.6836   -1.4025 C   0  0  0  0  0  0  0  0  0  0  0  0
   11.0737   -0.3479   -0.7331 N   0  0  0  0  0  0  0  0  0  0  0  0
   11.7529   -1.5414   -0.2760 C   0  0  0  0  0  0  0  0  0  0  0  0
    9.6868   -0.2278   -0.4874 C   0  0  0  0  0  0  0  0  0  0  0  0
    8.7489   -0.4178   -1.4702 C   0  0  0  0  0  0  0  0  0  0  0  0
    7.3920   -0.3050   -1.1281 C   0  0  0  0  0  0  0  0  0  0  0  0
    6.9784   -0.0176    0.1351 C   0  0  0  0  0  0  0  0  0  0  0  0
    5.5798    0.0880    0.5007 C   0  0  0  0  0  0  0  0  0  0  0  0
    4.5950   -0.0379   -0.3565 C   0  0  0  0  0  0  0  0  0  0  0  0
    3.2207    0.0702    0.0502 C   0  0  0  0  0  0  0  0  0  0  0  0
    2.2197   -0.0170   -0.9254 C   0  0  0  0  0  0  0  0  0  0  0  0
    0.8886    0.0577   -0.5489 C   0  0  0  0  0  0  0  0  0  0  0  0
    0.5095    0.2159    0.7586 C   0  0  0  0  0  0  0  0  0  0  0  0
   -0.8783    0.2839    1.1888 C   0  0  0  0  0  0  0  0  0  0  0  0
   -1.3565    0.4272    2.4324 N   0  0  0  0  0  0  0  0  0  0  0  0
   -2.6683    0.4450    2.4375 N   0  0  0  0  0  0  0  0  0  0  0  0
   -3.0408    0.3062    1.1310 C   0  0  0  0  0  0  0  0  0  0  0  0
   -4.4231    0.2731    0.6667 C   0  0  0  0  0  0  0  0  0  0  0  0
   -4.7701    0.1700   -0.6603 C   0  0  0  0  0  0  0  0  0  0  0  0
   -6.1131    0.1206   -1.0427 C   0  0  0  0  0  0  0  0  0  0  0  0
   -7.1156    0.1744   -0.1006 C   0  0  0  0  0  0  0  0  0  0  0  0
   -8.5094    0.0949   -0.5794 C   0  0  0  0  0  0  0  0  0  0  0  0
   -9.6552    0.1488    0.1682 C   0  0  0  0  0  0  0  0  0  0  0  0
  -10.8326    0.0490   -0.4938 C   0  0  0  0  0  0  0  0  0  0  0  0
  -12.1208    0.0747    0.0757 C   0  0  0  0  0  0  0  0  0  0  0  0
  -13.2385   -0.0404   -0.7024 C   0  0  0  0  0  0  0  0  0  0  0  0
  -13.1775   -0.1864   -2.0612 C   0  0  0  0  0  0  0  0  0  0  0  0
  -11.9313   -0.2148   -2.6411 C   0  0  0  0  0  0  0  0  0  0  0  0
  -10.7735   -0.0958   -1.8442 C   0  0  0  0  0  0  0  0  0  0  0  0
   -9.0976   -0.0910   -2.1698 S   0  0  0  0  0  0  0  0  0  0  0  0
   -6.7911    0.2774    1.2253 C   0  0  0  0  0  0  0  0  0  0  0  0
   -5.4539    0.3259    1.6009 C   0  0  0  0  0  0  0  0  0  0  0  0
   -1.9464    0.2152    0.4327 O   0  0  0  0  0  0  0  0  0  0  0  0
    1.4994    0.3018    1.7168 C   0  0  0  0  0  0  0  0  0  0  0  0
    2.8504    0.2272    1.3514 C   0  0  0  0  0  0  0  0  0  0  0  0
    7.9709    0.1688    1.1039 C   0  0  0  0  0  0  0  0  0  0  0  0
    9.3101    0.0700    0.8191 C   0  0  0  0  0  0  0  0  0  0  0  0
   12.2903    0.3270   -2.3411 H   0  0  0  0  0  0  0  0  0  0  0  0
   11.1297    1.5249   -1.7334 H   0  0  0  0  0  0  0  0  0  0  0  0
   12.5371    1.1557   -0.7092 H   0  0  0  0  0  0  0  0  0  0  0  0
   11.3783   -1.7685    0.7543 H   0  0  0  0  0  0  0  0  0  0  0  0
   12.8508   -1.3980   -0.2695 H   0  0  0  0  0  0  0  0  0  0  0  0
   11.5330   -2.4370   -0.8988 H   0  0  0  0  0  0  0  0  0  0  0  0
    9.0462   -0.6534   -2.4926 H   0  0  0  0  0  0  0  0  0  0  0  0
    6.7200   -0.4651   -1.9478 H   0  0  0  0  0  0  0  0  0  0  0  0
    5.3657    0.2831    1.5704 H   0  0  0  0  0  0  0  0  0  0  0  0
    4.8696   -0.2344   -1.4029 H   0  0  0  0  0  0  0  0  0  0  0  0
    2.5040   -0.1401   -1.9553 H   0  0  0  0  0  0  0  0  0  0  0  0
    0.1553   -0.0131   -1.3427 H   0  0  0  0  0  0  0  0  0  0  0  0
   -3.9924    0.1290   -1.4112 H   0  0  0  0  0  0  0  0  0  0  0  0
   -6.3853    0.0417   -2.0924 H   0  0  0  0  0  0  0  0  0  0  0  0
   -9.5437    0.2720    1.2773 H   0  0  0  0  0  0  0  0  0  0  0  0
  -12.2566    0.1892    1.1640 H   0  0  0  0  0  0  0  0  0  0  0  0
  -14.2247   -0.0190   -0.2653 H   0  0  0  0  0  0  0  0  0  0  0  0
  -14.0670   -0.2738   -2.6380 H   0  0  0  0  0  0  0  0  0  0  0  0
  -11.7793   -0.3245   -3.6962 H   0  0  0  0  0  0  0  0  0  0  0  0
   -7.5857    0.3188    1.9421 H   0  0  0  0  0  0  0  0  0  0  0  0
   -5.1983    0.4048    2.6362 H   0  0  0  0  0  0  0  0  0  0  0  0
    1.1971    0.4290    2.7432 H   0  0  0  0  0  0  0  0  0  0  0  0
    3.5554    0.2999    2.1667 H   0  0  0  0  0  0  0  0  0  0  0  0
    7.6389    0.4057    2.1237 H   0  0  0  0  0  0  0  0  0  0  0  0
   10.0720    0.2176    1.5781 H   0  0  0  0  0  0  0  0  0  0  0  0
  1  2  1  0
  2  3  1  0
  2  4  1  0
  4  5  2  0
  5  6  1  0
  6  7  2  0
  7  8  1  0
  8  9  2  0
  9 10  1  0
 10 11  2  0
 11 12  1  0
 12 13  2  0
 13 14  1  0
 14 15  2  0
 15 16  1  0
 16 17  2  0
 17 18  1  0
 18 19  2  0
 19 20  1  0
 20 21  2  0
 21 22  1  0
 22 23  2  0
 23 24  1  0
 24 25  2  0
 25 26  1  0
 26 27  2  0
 27 28  1  0
 28 29  2  0
 29 30  1  0
 21 31  1  0
 31 32  2  0
 17 33  1  0
 13 34  1  0
 34 35  2  0
  7 36  1  0
 36 37  2  0
 37  4  1  0
 35 10  1  0
 33 14  1  0
 32 18  1  0
 30 22  1  0
 29 24  1  0
  1 38  1  0
  1 39  1  0
  1 40  1  0
  3 41  1  0
  3 42  1  0
  3 43  1  0
  5 44  1  0
  6 45  1  0
  8 46  1  0
  9 47  1  0
 11 48  1  0
 12 49  1  0
 19 50  1  0
 20 51  1  0
 23 52  1  0
 25 53  1  0
 26 54  1  0
 27 55  1  0
 28 56  1  0
 31 57  1  0
 32 58  1  0
 34 59  1  0
 35 60  1  0
 36 61  1  0
 37 62  1  0
M  END
