
     RDKit          3D

 57 62  0  0  0  0  0  0  0  0999 V2000
   -0.1773   -1.7109   -0.8343 F   0  0  0  0  0  0  0  0  0  0  0  0
   -0.1240   -0.6339    0.1348 B   0  0  0  0  0  4  0  0  0  0  0  0
   -0.0780   -1.2361    1.4602 F   0  0  0  0  0  0  0  0  0  0  0  0
    1.1499    0.1885   -0.0198 N   0  0  0  0  0  0  0  0  0  0  0  0
    1.1491    1.5105   -0.2229 C   0  0  0  0  0  0  0  0  0  0  0  0
    2.4587    1.9501   -0.3376 C   0  0  0  0  0  0  0  0  0  0  0  0
    3.2762    0.8486   -0.1973 C   0  0  0  0  0  0  0  0  0  0  0  0
    2.4411   -0.2501    0.0023 C   0  0  0  0  0  0  0  0  0  0  0  0
    2.9550   -1.5516    0.1964 N   0  0  0  0  0  0  0  0  0  0  0  0
    3.3932   -1.9640    1.4891 C   0  0  0  0  0  0  0  0  0  0  0  0
    4.5152   -2.9602    1.4576 C   0  0  0  0  0  0  0  0  0  0  0  0
    4.5705   -3.7148    0.3087 O   0  0  0  0  0  0  0  0  0  0  0  0
    4.4589   -3.0300   -0.8719 C   0  0  0  0  0  0  0  0  0  0  0  0
    3.0335   -2.4549   -0.9128 C   0  0  0  0  0  0  0  0  0  0  0  0
   -0.1022    2.2462   -0.2956 C   0  0  0  0  0  0  0  0  0  0  0  0
   -0.0753    3.7026   -0.5628 C   0  0  0  0  0  0  0  0  0  0  0  0
    0.7310    4.5433    0.1549 C   0  0  0  0  0  0  0  0  0  0  0  0
    0.7715    5.8969   -0.1260 C   0  0  0  0  0  0  0  0  0  0  0  0
   -0.0129    6.3854   -1.1405 C   0  0  0  0  0  0  0  0  0  0  0  0
   -0.8308    5.5874   -1.8817 C   0  0  0  0  0  0  0  0  0  0  0  0
   -0.8515    4.2231   -1.5751 C   0  0  0  0  0  0  0  0  0  0  0  0
   -1.2482    1.6172   -0.1616 C   0  0  0  0  0  0  0  0  0  0  0  0
   -2.5986    2.1544   -0.2004 C   0  0  0  0  0  0  0  0  0  0  0  0
   -3.3973    1.1174   -0.0284 C   0  0  0  0  0  0  0  0  0  0  0  0
   -2.6139   -0.1156    0.1271 C   0  0  0  0  0  0  0  0  0  0  0  0
   -3.2153   -1.3787    0.3090 N   0  0  0  0  0  0  0  0  0  0  0  0
   -3.3018   -1.9739    1.6066 C   0  0  0  0  0  0  0  0  0  0  0  0
   -3.1531   -3.4659    1.5359 C   0  0  0  0  0  0  0  0  0  0  0  0
   -3.7825   -4.0728    0.4853 O   0  0  0  0  0  0  0  0  0  0  0  0
   -4.5378   -3.2573   -0.3248 C   0  0  0  0  0  0  0  0  0  0  0  0
   -3.7483   -2.0731   -0.8370 C   0  0  0  0  0  0  0  0  0  0  0  0
   -1.3673    0.2129    0.0458 N   0  0  0  0  0  4  0  0  0  0  0  0
    2.7613    2.9839   -0.5117 H   0  0  0  0  0  0  0  0  0  0  0  0
    4.3613    0.8618   -0.2372 H   0  0  0  0  0  0  0  0  0  0  0  0
    3.6956   -1.0849    2.1215 H   0  0  0  0  0  0  0  0  0  0  0  0
    2.5384   -2.4305    2.0204 H   0  0  0  0  0  0  0  0  0  0  0  0
    4.4954   -3.6454    2.3262 H   0  0  0  0  0  0  0  0  0  0  0  0
    5.4662   -2.3935    1.5254 H   0  0  0  0  0  0  0  0  0  0  0  0
    4.5228   -3.7752   -1.6988 H   0  0  0  0  0  0  0  0  0  0  0  0
    5.1927   -2.2249   -1.0066 H   0  0  0  0  0  0  0  0  0  0  0  0
    2.7954   -2.0069   -1.8778 H   0  0  0  0  0  0  0  0  0  0  0  0
    2.3748   -3.3362   -0.6548 H   0  0  0  0  0  0  0  0  0  0  0  0
    1.3560    4.1571    0.9745 H   0  0  0  0  0  0  0  0  0  0  0  0
    1.4261    6.5474    0.4636 H   0  0  0  0  0  0  0  0  0  0  0  0
    0.0072    7.4614   -1.3805 H   0  0  0  0  0  0  0  0  0  0  0  0
   -1.4511    5.9389   -2.6770 H   0  0  0  0  0  0  0  0  0  0  0  0
   -1.4951    3.5817   -2.1693 H   0  0  0  0  0  0  0  0  0  0  0  0
   -2.9140    3.1782   -0.3329 H   0  0  0  0  0  0  0  0  0  0  0  0
   -4.4706    1.1981   -0.0086 H   0  0  0  0  0  0  0  0  0  0  0  0
   -4.3640   -1.7953    1.9526 H   0  0  0  0  0  0  0  0  0  0  0  0
   -2.6060   -1.5279    2.3409 H   0  0  0  0  0  0  0  0  0  0  0  0
   -2.0574   -3.6916    1.4724 H   0  0  0  0  0  0  0  0  0  0  0  0
   -3.4698   -3.8710    2.5237 H   0  0  0  0  0  0  0  0  0  0  0  0
   -5.4813   -2.9082    0.1562 H   0  0  0  0  0  0  0  0  0  0  0  0
   -4.8412   -3.8518   -1.2204 H   0  0  0  0  0  0  0  0  0  0  0  0
   -3.0195   -2.3311   -1.6012 H   0  0  0  0  0  0  0  0  0  0  0  0
   -4.5109   -1.3750   -1.2838 H   0  0  0  0  0  0  0  0  0  0  0  0
  1  2  1  0
  2  3  1  0
  2  4  1  0
  4  5  1  0
  5  6  2  0
  6  7  1  0
  7  8  2  0
  8  9  1  0
  9 10  1  0
 10 11  1  0
 11 12  1  0
 12 13  1  0
 13 14  1  0
  5 15  1  0
 15 16  1  0
 16 17  2  0
 17 18  1  0
 18 19  2  0
 19 20  1  0
 20 21  2  0
 15 22  2  0
 22 23  1  0
 23 24  2  0
 24 25  1  0
 25 26  1  0
 26 27  1  0
 27 28  1  0
 28 29  1  0
 29 30  1  0
 30 31  1  0
 25 32  2  0
 32  2  1  0
  8  4  1  0
 14  9  1  0
 21 16  1  0
 32 22  1  0
 31 26  1  0
  6 33  1  0
  7 34  1  0
 10 35  1  0
 10 36  1  0
 11 37  1  0
 11 38  1  0
 13 39  1  0
 13 40  1  0
 14 41  1  0
 14 42  1  0
 17 43  1  0
 18 44  1  0
 19 45  1  0
 20 46  1  0
 21 47  1  0
 23 48  1  0
 24 49  1  0
 27 50  1  0
 27 51  1  0
 28 52  1  0
 28 53  1  0
 30 54  1  0
 30 55  1  0
 31 56  1  0
 31 57  1  0
M  CHG  2   2  -1  32   1
M  END
