
     RDKit          3D

 39 39  0  0  0  0  0  0  0  0999 V2000
   -7.0134    0.8836    0.1649 F   0  0  0  0  0  0  0  0  0  0  0  0
   -6.5681    0.0681    1.1699 C   0  0  0  0  0  0  0  0  0  0  0  0
   -7.4843   -0.9624    1.3088 F   0  0  0  0  0  0  0  0  0  0  0  0
   -6.3736    0.7408    2.3452 F   0  0  0  0  0  0  0  0  0  0  0  0
   -5.2535   -0.5496    0.7468 C   0  0  0  0  0  0  0  0  0  0  0  0
   -4.7555   -1.3892    1.7336 F   0  0  0  0  0  0  0  0  0  0  0  0
   -5.3669   -1.2160   -0.4613 F   0  0  0  0  0  0  0  0  0  0  0  0
   -4.2129    0.5398    0.5531 C   0  0  0  0  0  0  0  0  0  0  0  0
   -4.7015    1.3774   -0.4315 F   0  0  0  0  0  0  0  0  0  0  0  0
   -4.0392    1.2723    1.6789 F   0  0  0  0  0  0  0  0  0  0  0  0
   -2.9429   -0.1629    0.0880 C   0  0  0  0  0  0  0  0  0  0  0  0
   -2.5768   -1.0736    1.1019 F   0  0  0  0  0  0  0  0  0  0  0  0
   -3.2718   -0.9221   -0.9991 F   0  0  0  0  0  0  0  0  0  0  0  0
   -1.8110    0.7776   -0.0863 C   0  0  0  0  0  0  0  0  0  0  0  0
   -1.4524    1.4170    1.0887 F   0  0  0  0  0  0  0  0  0  0  0  0
   -2.2540    1.8924   -0.8854 F   0  0  0  0  0  0  0  0  0  0  0  0
   -0.5940    0.2971   -0.8051 C   0  0  0  0  0  0  0  0  0  0  0  0
    0.3042    1.3879   -0.8134 F   0  0  0  0  0  0  0  0  0  0  0  0
   -0.8672    0.1148   -2.1688 F   0  0  0  0  0  0  0  0  0  0  0  0
    0.1269   -0.8610   -0.2299 C   0  0  0  0  0  0  0  0  0  0  0  0
   -0.7539   -1.9624   -0.2014 F   0  0  0  0  0  0  0  0  0  0  0  0
    0.4164   -0.6692    1.1328 F   0  0  0  0  0  0  0  0  0  0  0  0
    1.4106   -1.2515   -0.8697 C   0  0  0  0  0  0  0  0  0  0  0  0
    1.2786   -1.5898   -2.2047 F   0  0  0  0  0  0  0  0  0  0  0  0
    1.8127   -2.4325   -0.2121 F   0  0  0  0  0  0  0  0  0  0  0  0
    2.5077   -0.2274   -0.7823 C   0  0  0  0  0  0  0  0  0  0  0  0
    3.7080   -0.8603   -1.4828 C   0  0  0  0  0  0  0  0  0  0  0  0
    4.8219   -0.0045   -1.4786 O   0  0  0  0  0  0  0  0  0  0  0  0
    5.4421    0.4730   -0.3396 C   0  0  0  0  0  0  0  0  0  0  0  0
    4.9843    0.1217    0.8687 N   0  0  0  0  0  0  0  0  0  0  0  0
    5.5545    0.5608    1.9947 N   0  0  0  0  0  0  0  0  0  0  0  0
    6.6176    1.3782    1.9267 C   0  0  0  0  0  0  0  0  0  0  0  0
    7.3919    1.9745    3.4017 Cl  0  0  0  0  0  0  0  0  0  0  0  0
    7.0671    1.7232    0.7171 N   0  0  0  0  0  0  0  0  0  0  0  0
    6.4947    1.2825   -0.3970 N   0  0  0  0  0  0  0  0  0  0  0  0
    2.7040    0.0902    0.2370 H   0  0  0  0  0  0  0  0  0  0  0  0
    2.2985    0.6922   -1.3969 H   0  0  0  0  0  0  0  0  0  0  0  0
    3.9563   -1.7910   -0.9270 H   0  0  0  0  0  0  0  0  0  0  0  0
    3.3947   -1.1398   -2.5021 H   0  0  0  0  0  0  0  0  0  0  0  0
  1  2  1  0
  2  3  1  0
  2  4  1  0
  2  5  1  0
  5  6  1  0
  5  7  1  0
  5  8  1  0
  8  9  1  0
  8 10  1  0
  8 11  1  0
 11 12  1  0
 11 13  1  0
 11 14  1  0
 14 15  1  0
 14 16  1  0
 14 17  1  0
 17 18  1  0
 17 19  1  0
 17 20  1  0
 20 21  1  0
 20 22  1  0
 20 23  1  0
 23 24  1  0
 23 25  1  0
 23 26  1  0
 26 27  1  0
 27 28  1  0
 28 29  1  0
 29 30  2  0
 30 31  1  0
 31 32  2  0
 32 33  1  0
 32 34  1  0
 34 35  2  0
 35 29  1  0
 26 36  1  0
 26 37  1  0
 27 38  1  0
 27 39  1  0
M  END
