
     RDKit          3D

 38 40  0  0  0  0  0  0  0  0999 V2000
   -2.7439   -2.1582    0.6446 C   0  0  0  0  0  0  0  0  0  0  0  0
   -2.0557   -1.6336   -0.5814 C   0  0  0  0  0  0  0  0  0  0  0  0
   -0.6782   -1.9322   -0.7180 N   0  0  0  0  0  0  0  0  0  0  0  0
   -0.1807   -3.2793   -0.9946 C   0  0  0  0  0  0  0  0  0  0  0  0
   -0.3731   -4.1557    0.1924 C   0  0  0  0  0  0  0  0  0  0  0  0
    0.3168   -0.9149   -0.5610 C   0  0  0  0  0  0  0  0  0  0  0  0
    2.0222   -1.1565   -0.8053 S   0  0  0  0  0  0  0  0  0  0  0  0
    2.5789    0.4053   -0.4406 C   0  0  0  0  0  0  0  0  0  0  0  0
    3.9665    0.9011   -0.4627 C   0  0  0  0  0  0  0  0  0  0  0  0
    4.4587    2.1352   -0.1508 C   0  0  0  0  0  0  0  0  0  0  0  0
    5.7788    2.3187   -0.2681 C   0  0  0  0  0  0  0  0  0  0  0  0
    6.5298    1.2519   -0.6915 C   0  0  0  0  0  0  0  0  0  0  0  0
    5.3577    0.0300   -0.9098 S   0  0  0  0  0  0  0  0  0  0  0  0
    1.4332    1.0733   -0.1390 C   0  0  0  0  0  0  0  0  0  0  0  0
    0.2755    0.3966   -0.2011 C   0  0  0  0  0  0  0  0  0  0  0  0
   -1.0004    1.0455    0.1050 N   0  0  0  0  0  0  0  0  0  0  0  0
   -1.0897    2.1753    0.6188 N   0  0  0  0  0  0  0  0  0  0  0  0
   -2.4371    2.6654    0.8501 C   0  0  0  0  0  0  0  0  0  0  0  0
   -3.2231    3.2784   -0.0262 N   0  0  0  0  0  0  0  0  0  0  0  0
   -4.4078    3.6604    0.3285 C   0  0  0  0  0  0  0  0  0  0  0  0
   -4.7999    3.4071    1.6193 C   0  0  0  0  0  0  0  0  0  0  0  0
   -3.4156    2.6231    2.2486 S   0  0  0  0  0  0  0  0  0  0  0  0
   -2.2891   -1.7470    1.5667 H   0  0  0  0  0  0  0  0  0  0  0  0
   -3.7885   -1.7035    0.6099 H   0  0  0  0  0  0  0  0  0  0  0  0
   -2.7928   -3.2414    0.7398 H   0  0  0  0  0  0  0  0  0  0  0  0
   -2.2556   -0.5631   -0.6960 H   0  0  0  0  0  0  0  0  0  0  0  0
   -2.5426   -2.1102   -1.5169 H   0  0  0  0  0  0  0  0  0  0  0  0
    0.8986   -3.1964   -1.2147 H   0  0  0  0  0  0  0  0  0  0  0  0
   -0.6627   -3.6865   -1.9201 H   0  0  0  0  0  0  0  0  0  0  0  0
   -0.4850   -3.6097    1.1443 H   0  0  0  0  0  0  0  0  0  0  0  0
   -1.2153   -4.8798    0.1095 H   0  0  0  0  0  0  0  0  0  0  0  0
    0.5313   -4.8249    0.3628 H   0  0  0  0  0  0  0  0  0  0  0  0
    3.7484    2.9252    0.1857 H   0  0  0  0  0  0  0  0  0  0  0  0
    6.2735    3.2897   -0.0372 H   0  0  0  0  0  0  0  0  0  0  0  0
    7.6260    1.2227   -0.8450 H   0  0  0  0  0  0  0  0  0  0  0  0
    1.4996    2.1504    0.1462 H   0  0  0  0  0  0  0  0  0  0  0  0
   -5.0914    4.1782   -0.3852 H   0  0  0  0  0  0  0  0  0  0  0  0
   -5.7673    3.6592    2.0929 H   0  0  0  0  0  0  0  0  0  0  0  0
  1  2  1  0
  2  3  1  0
  3  4  1  0
  4  5  1  0
  3  6  1  0
  6  7  1  0
  7  8  1  0
  8  9  1  0
  9 10  2  0
 10 11  1  0
 11 12  2  0
 12 13  1  0
  8 14  2  0
 14 15  1  0
 15 16  1  0
 16 17  2  0
 17 18  1  0
 18 19  2  0
 19 20  1  0
 20 21  2  0
 21 22  1  0
 15  6  2  0
 22 18  1  0
 13  9  1  0
  1 23  1  0
  1 24  1  0
  1 25  1  0
  2 26  1  0
  2 27  1  0
  4 28  1  0
  4 29  1  0
  5 30  1  0
  5 31  1  0
  5 32  1  0
 10 33  1  0
 11 34  1  0
 12 35  1  0
 14 36  1  0
 20 37  1  0
 21 38  1  0
M  END
