
     RDKit          3D

 90102  0  0  0  0  0  0  0  0999 V2000
    2.4574   -1.1776   -0.6677 C   0  0  0  0  0  0  0  0  0  0  0  0
    2.8418    0.0740    0.0177 C   0  0  0  0  0  0  0  0  0  0  0  0
    4.1385    0.4324    0.0740 C   0  0  0  0  0  0  0  0  0  0  0  0
    5.2726   -0.1641   -0.4306 C   0  0  0  0  0  0  0  0  0  0  0  0
    5.7721   -1.1389   -1.2613 C   0  0  0  0  0  0  0  0  0  0  0  0
    5.2971   -2.1109   -2.0981 C   0  0  0  0  0  0  0  0  0  0  0  0
    6.1599   -2.9340   -2.8237 C   0  0  0  0  0  0  0  0  0  0  0  0
    7.5331   -2.8296   -2.7546 C   0  0  0  0  0  0  0  0  0  0  0  0
    8.0160   -1.8437   -1.9110 C   0  0  0  0  0  0  0  0  0  0  0  0
    9.3627   -1.5910   -1.7467 C   0  0  0  0  0  0  0  0  0  0  0  0
    9.7709   -0.5713   -0.9044 C   0  0  0  0  0  0  0  0  0  0  0  0
    8.8604    0.2306   -0.1988 C   0  0  0  0  0  0  0  0  0  0  0  0
    7.5092   -0.0252   -0.3646 C   0  0  0  0  0  0  0  0  0  0  0  0
    6.3116    0.5079    0.0986 C   0  0  0  0  0  0  0  0  0  0  0  0
    5.8572    1.5006    0.8987 C   0  0  0  0  0  0  0  0  0  0  0  0
    6.6024    2.5095    1.6950 C   0  0  0  0  0  0  0  0  0  0  0  0
    4.4901    1.4568    0.8834 N   0  0  0  0  0  4  0  0  0  0  0  0
    3.4955    2.3656    1.5808 B   0  0  0  0  0  4  0  0  0  0  0  0
    3.6963    3.7669    1.1903 F   0  0  0  0  0  0  0  0  0  0  0  0
    3.7829    2.2174    3.0250 F   0  0  0  0  0  0  0  0  0  0  0  0
    2.0607    1.9487    1.3388 N   0  0  0  0  0  0  0  0  0  0  0  0
    0.8945    2.5329    1.7538 C   0  0  0  0  0  0  0  0  0  0  0  0
    0.8227    3.7717    2.5432 C   0  0  0  0  0  0  0  0  0  0  0  0
   -0.1426    1.7717    1.3095 C   0  0  0  0  0  0  0  0  0  0  0  0
   -1.5185    1.8539    1.3894 C   0  0  0  0  0  0  0  0  0  0  0  0
   -2.4009    0.9647    0.8295 C   0  0  0  0  0  0  0  0  0  0  0  0
   -3.7780    1.1101    0.9506 C   0  0  0  0  0  0  0  0  0  0  0  0
   -4.3298    2.2386    1.6930 C   0  0  0  0  0  0  0  0  0  0  0  0
   -4.5193    2.2643    3.0369 C   0  0  0  0  0  0  0  0  0  0  0  0
   -5.0431    3.3966    3.6200 C   0  0  0  0  0  0  0  0  0  0  0  0
   -5.3842    4.5118    2.8844 C   0  0  0  0  0  0  0  0  0  0  0  0
   -5.1955    4.5007    1.5037 C   0  0  0  0  0  0  0  0  0  0  0  0
   -4.6706    3.3620    0.9321 C   0  0  0  0  0  0  0  0  0  0  0  0
   -4.6152    0.1894    0.3686 C   0  0  0  0  0  0  0  0  0  0  0  0
   -4.1009   -0.8866   -0.3408 C   0  0  0  0  0  0  0  0  0  0  0  0
   -2.7214   -0.9996   -0.4407 C   0  0  0  0  0  0  0  0  0  0  0  0
   -2.1252   -2.1127   -1.1626 C   0  0  0  0  0  0  0  0  0  0  0  0
   -1.8807   -3.3233   -0.5583 C   0  0  0  0  0  0  0  0  0  0  0  0
   -1.3150   -4.3684   -1.2588 C   0  0  0  0  0  0  0  0  0  0  0  0
   -0.9783   -4.2276   -2.5871 C   0  0  0  0  0  0  0  0  0  0  0  0
   -1.2211   -3.0022   -3.2150 C   0  0  0  0  0  0  0  0  0  0  0  0
   -1.7910   -1.9720   -2.4824 C   0  0  0  0  0  0  0  0  0  0  0  0
   -1.8548   -0.0879    0.1349 C   0  0  0  0  0  0  0  0  0  0  0  0
   -0.4561   -0.2178    0.0246 C   0  0  0  0  0  0  0  0  0  0  0  0
    0.3882    0.6860    0.5987 C   0  0  0  0  0  0  0  0  0  0  0  0
    1.7724    0.8447    0.6491 C   0  0  0  0  0  0  0  0  0  0  0  0
   -5.1985   -1.7011   -0.8500 C   0  0  0  0  0  0  0  0  0  0  0  0
   -5.2480   -2.8553   -1.6010 C   0  0  0  0  0  0  0  0  0  0  0  0
   -6.5029   -3.3339   -1.8886 C   0  0  0  0  0  0  0  0  0  0  0  0
   -7.6826   -2.7017   -1.4542 C   0  0  0  0  0  0  0  0  0  0  0  0
   -7.6069   -1.5395   -0.6986 C   0  0  0  0  0  0  0  0  0  0  0  0
   -8.6919   -0.8398   -0.2223 C   0  0  0  0  0  0  0  0  0  0  0  0
   -8.4378    0.3130    0.5232 C   0  0  0  0  0  0  0  0  0  0  0  0
   -7.1364    0.7580    0.7879 C   0  0  0  0  0  0  0  0  0  0  0  0
   -6.0627    0.0442    0.3025 C   0  0  0  0  0  0  0  0  0  0  0  0
   -6.3533   -1.0846   -0.4265 C   0  0  0  0  0  0  0  0  0  0  0  0
    7.1452   -1.0438   -1.2048 C   0  0  0  0  0  0  0  0  0  0  0  0
    2.2346   -1.1485   -1.6993 H   0  0  0  0  0  0  0  0  0  0  0  0
    1.6399   -1.6188    0.0097 H   0  0  0  0  0  0  0  0  0  0  0  0
    3.2660   -1.9394   -0.3876 H   0  0  0  0  0  0  0  0  0  0  0  0
    4.2620   -2.2404   -2.2508 H   0  0  0  0  0  0  0  0  0  0  0  0
    5.7456   -3.6988   -3.4796 H   0  0  0  0  0  0  0  0  0  0  0  0
    8.2082   -3.4493   -3.2999 H   0  0  0  0  0  0  0  0  0  0  0  0
   10.1069   -2.1633   -2.2545 H   0  0  0  0  0  0  0  0  0  0  0  0
   10.8244   -0.3884   -0.7869 H   0  0  0  0  0  0  0  0  0  0  0  0
    9.1433    1.0225    0.4547 H   0  0  0  0  0  0  0  0  0  0  0  0
    6.0432    2.8143    2.5936 H   0  0  0  0  0  0  0  0  0  0  0  0
    6.7856    3.4234    1.0640 H   0  0  0  0  0  0  0  0  0  0  0  0
    7.5992    2.1424    2.0020 H   0  0  0  0  0  0  0  0  0  0  0  0
    0.1358    3.6412    3.4072 H   0  0  0  0  0  0  0  0  0  0  0  0
    1.8015    4.0629    2.9694 H   0  0  0  0  0  0  0  0  0  0  0  0
    0.4565    4.5902    1.8910 H   0  0  0  0  0  0  0  0  0  0  0  0
   -1.9343    2.6874    1.9385 H   0  0  0  0  0  0  0  0  0  0  0  0
   -4.2582    1.4025    3.6233 H   0  0  0  0  0  0  0  0  0  0  0  0
   -5.2008    3.4352    4.6872 H   0  0  0  0  0  0  0  0  0  0  0  0
   -5.7936    5.4058    3.3114 H   0  0  0  0  0  0  0  0  0  0  0  0
   -5.4583    5.3757    0.8930 H   0  0  0  0  0  0  0  0  0  0  0  0
   -4.5300    3.3638   -0.1272 H   0  0  0  0  0  0  0  0  0  0  0  0
   -2.1132   -3.5267    0.4851 H   0  0  0  0  0  0  0  0  0  0  0  0
   -1.1219   -5.3230   -0.7836 H   0  0  0  0  0  0  0  0  0  0  0  0
   -0.5343   -5.0066   -3.1869 H   0  0  0  0  0  0  0  0  0  0  0  0
   -0.9759   -2.8429   -4.2518 H   0  0  0  0  0  0  0  0  0  0  0  0
   -1.9500   -1.0367   -3.0522 H   0  0  0  0  0  0  0  0  0  0  0  0
   -0.1472   -1.0489   -0.5684 H   0  0  0  0  0  0  0  0  0  0  0  0
   -4.3854   -3.3752   -1.9590 H   0  0  0  0  0  0  0  0  0  0  0  0
   -6.6558   -4.2321   -2.4710 H   0  0  0  0  0  0  0  0  0  0  0  0
   -8.6632   -3.0893   -1.6877 H   0  0  0  0  0  0  0  0  0  0  0  0
   -9.6638   -1.1968   -0.4360 H   0  0  0  0  0  0  0  0  0  0  0  0
   -9.2768    0.8707    0.9022 H   0  0  0  0  0  0  0  0  0  0  0  0
   -6.9383    1.6467    1.3651 H   0  0  0  0  0  0  0  0  0  0  0  0
  1  2  1  0
  2  3  2  0
  3  4  1  0
  4  5  1  0
  5  6  2  0
  6  7  1  0
  7  8  2  0
  8  9  1  0
  9 10  1  0
 10 11  2  0
 11 12  1  0
 12 13  2  0
 13 14  1  0
 14 15  1  0
 15 16  1  0
 15 17  2  0
 17 18  1  0
 18 19  1  0
 18 20  1  0
 18 21  1  0
 21 22  1  0
 22 23  1  0
 22 24  2  0
 24 25  1  0
 25 26  2  0
 26 27  1  0
 27 28  1  0
 28 29  2  0
 29 30  1  0
 30 31  2  0
 31 32  1  0
 32 33  2  0
 27 34  2  0
 34 35  1  0
 35 36  2  0
 36 37  1  0
 37 38  2  0
 38 39  1  0
 39 40  2  0
 40 41  1  0
 41 42  2  0
 36 43  1  0
 43 44  2  0
 44 45  1  0
 45 46  2  0
 35 47  1  0
 47 48  2  0
 48 49  1  0
 49 50  2  0
 50 51  1  0
 51 52  1  0
 52 53  2  0
 53 54  1  0
 54 55  2  0
 55 56  1  0
 13 57  1  0
 46  2  1  0
 56 47  1  0
 17  3  1  0
 46 21  1  0
 56 51  2  0
 14  4  2  0
 45 24  1  0
 57  5  1  0
 57  9  2  0
 43 26  1  0
 33 28  1  0
 55 34  1  0
 42 37  1  0
  1 58  1  0
  1 59  1  0
  1 60  1  0
  6 61  1  0
  7 62  1  0
  8 63  1  0
 10 64  1  0
 11 65  1  0
 12 66  1  0
 16 67  1  0
 16 68  1  0
 16 69  1  0
 23 70  1  0
 23 71  1  0
 23 72  1  0
 25 73  1  0
 29 74  1  0
 30 75  1  0
 31 76  1  0
 32 77  1  0
 33 78  1  0
 38 79  1  0
 39 80  1  0
 40 81  1  0
 41 82  1  0
 42 83  1  0
 44 84  1  0
 48 85  1  0
 49 86  1  0
 50 87  1  0
 52 88  1  0
 53 89  1  0
 54 90  1  0
M  CHG  2  17   1  18  -1
M  END
