
     RDKit          3D

 76 82  0  0  0  0  0  0  0  0999 V2000
    2.8609   -4.9868   -1.1729 C   0  0  0  0  0  0  0  0  0  0  0  0
    2.3692   -3.7748   -1.8886 C   0  0  0  0  0  0  0  0  0  0  0  0
    2.1024   -2.6524   -0.8991 C   0  0  0  0  0  0  0  0  0  0  0  0
    1.6507   -1.4123   -1.5986 C   0  0  0  0  0  0  0  0  0  0  0  0
    1.5715   -0.3008   -0.7228 N   0  0  0  0  0  0  0  0  0  0  0  0
    2.7550    0.3884   -0.4766 C   0  0  0  0  0  0  0  0  0  0  0  0
    4.0742    0.0907   -0.7979 C   0  0  0  0  0  0  0  0  0  0  0  0
    5.0743    0.9517   -0.4213 C   0  0  0  0  0  0  0  0  0  0  0  0
    4.7799    2.0980    0.2663 C   0  0  0  0  0  0  0  0  0  0  0  0
    5.8958    2.9724    0.6343 C   0  0  0  0  0  0  0  0  0  0  0  0
    5.8590    3.7335    1.7845 C   0  0  0  0  0  0  0  0  0  0  0  0
    6.9379    4.5410    2.0720 C   0  0  0  0  0  0  0  0  0  0  0  0
    8.0429    4.6131    1.2558 C   0  0  0  0  0  0  0  0  0  0  0  0
    8.0713    3.8503    0.1101 C   0  0  0  0  0  0  0  0  0  0  0  0
    9.1390    3.9083   -0.6958 F   0  0  0  0  0  0  0  0  0  0  0  0
    6.9852    3.0251   -0.1975 C   0  0  0  0  0  0  0  0  0  0  0  0
    3.4945    2.3921    0.5815 C   0  0  0  0  0  0  0  0  0  0  0  0
    2.5127    1.5320    0.2038 C   0  0  0  0  0  0  0  0  0  0  0  0
    1.1437    1.5743    0.3972 C   0  0  0  0  0  0  0  0  0  0  0  0
    0.3638    2.5654    0.9539 C   0  0  0  0  0  0  0  0  0  0  0  0
   -0.9854    2.4138    0.9380 C   0  0  0  0  0  0  0  0  0  0  0  0
   -1.5674    1.2968    0.3879 C   0  0  0  0  0  0  0  0  0  0  0  0
   -2.8633    0.9052    0.2699 C   0  0  0  0  0  0  0  0  0  0  0  0
   -4.0279    1.5545    0.6488 C   0  0  0  0  0  0  0  0  0  0  0  0
   -5.2289    0.9608    0.4171 C   0  0  0  0  0  0  0  0  0  0  0  0
   -6.5043    1.5775    0.7817 C   0  0  0  0  0  0  0  0  0  0  0  0
   -6.5758    2.3875    1.8796 C   0  0  0  0  0  0  0  0  0  0  0  0
   -7.7905    2.9777    2.2279 C   0  0  0  0  0  0  0  0  0  0  0  0
   -8.9166    2.7506    1.4746 C   0  0  0  0  0  0  0  0  0  0  0  0
   -8.8528    1.9394    0.3719 C   0  0  0  0  0  0  0  0  0  0  0  0
   -9.9344    1.6994   -0.3822 F   0  0  0  0  0  0  0  0  0  0  0  0
   -7.6406    1.3585    0.0356 C   0  0  0  0  0  0  0  0  0  0  0  0
   -5.2469   -0.2714   -0.1887 C   0  0  0  0  0  0  0  0  0  0  0  0
   -4.0664   -0.9183   -0.5669 C   0  0  0  0  0  0  0  0  0  0  0  0
   -2.8625   -0.3126   -0.3298 C   0  0  0  0  0  0  0  0  0  0  0  0
   -1.5312   -0.6981   -0.5948 N   0  0  0  0  0  0  0  0  0  0  0  0
   -1.4036   -2.0182   -1.0759 C   0  0  0  0  0  0  0  0  0  0  0  0
   -1.6164   -2.9587    0.1768 C   0  0  0  0  0  0  0  0  0  0  0  0
   -1.7662   -4.3856   -0.1730 C   0  0  0  0  0  0  0  0  0  0  0  0
   -0.6717   -5.0789   -0.8852 C   0  0  0  0  0  0  0  0  0  0  0  0
   -0.7722    0.2851   -0.1734 C   0  0  0  0  0  0  0  0  0  0  0  0
    0.6247    0.4167   -0.1877 C   0  0  0  0  0  0  0  0  0  0  0  0
    2.7150   -4.8436   -0.0798 H   0  0  0  0  0  0  0  0  0  0  0  0
    2.2414   -5.8574   -1.4749 H   0  0  0  0  0  0  0  0  0  0  0  0
    3.9308   -5.1259   -1.4354 H   0  0  0  0  0  0  0  0  0  0  0  0
    3.1188   -3.4074   -2.6483 H   0  0  0  0  0  0  0  0  0  0  0  0
    1.4675   -3.9841   -2.4638 H   0  0  0  0  0  0  0  0  0  0  0  0
    3.0402   -2.5170   -0.3283 H   0  0  0  0  0  0  0  0  0  0  0  0
    1.3656   -3.0378   -0.1669 H   0  0  0  0  0  0  0  0  0  0  0  0
    2.5814   -1.2386   -2.3373 H   0  0  0  0  0  0  0  0  0  0  0  0
    0.9111   -1.4933   -2.3921 H   0  0  0  0  0  0  0  0  0  0  0  0
    4.3383   -0.8122   -1.3466 H   0  0  0  0  0  0  0  0  0  0  0  0
    6.1156    0.7089   -0.6751 H   0  0  0  0  0  0  0  0  0  0  0  0
    4.9938    3.6942    2.4487 H   0  0  0  0  0  0  0  0  0  0  0  0
    6.8785    5.1244    2.9797 H   0  0  0  0  0  0  0  0  0  0  0  0
    8.8933    5.2433    1.4728 H   0  0  0  0  0  0  0  0  0  0  0  0
    7.0450    2.4412   -1.1122 H   0  0  0  0  0  0  0  0  0  0  0  0
    3.2526    3.2811    1.1162 H   0  0  0  0  0  0  0  0  0  0  0  0
    0.8403    3.4295    1.3850 H   0  0  0  0  0  0  0  0  0  0  0  0
   -1.6675    3.1756    1.3630 H   0  0  0  0  0  0  0  0  0  0  0  0
   -3.9712    2.5183    1.1207 H   0  0  0  0  0  0  0  0  0  0  0  0
   -5.7011    2.5809    2.4883 H   0  0  0  0  0  0  0  0  0  0  0  0
   -7.8787    3.6222    3.0893 H   0  0  0  0  0  0  0  0  0  0  0  0
   -9.8665    3.2014    1.7315 H   0  0  0  0  0  0  0  0  0  0  0  0
   -7.5517    0.7104   -0.8305 H   0  0  0  0  0  0  0  0  0  0  0  0
   -6.1682   -0.7816   -0.3933 H   0  0  0  0  0  0  0  0  0  0  0  0
   -4.1303   -1.8763   -1.0354 H   0  0  0  0  0  0  0  0  0  0  0  0
   -2.2999   -2.3251   -1.7233 H   0  0  0  0  0  0  0  0  0  0  0  0
   -0.5983   -2.4547   -1.5628 H   0  0  0  0  0  0  0  0  0  0  0  0
   -2.5804   -2.6326    0.6421 H   0  0  0  0  0  0  0  0  0  0  0  0
   -0.7837   -2.8219    0.8719 H   0  0  0  0  0  0  0  0  0  0  0  0
   -1.8670   -4.9274    0.8311 H   0  0  0  0  0  0  0  0  0  0  0  0
   -2.7471   -4.5843   -0.6989 H   0  0  0  0  0  0  0  0  0  0  0  0
   -0.6260   -4.7092   -1.9228 H   0  0  0  0  0  0  0  0  0  0  0  0
   -1.0354   -6.1589   -1.0217 H   0  0  0  0  0  0  0  0  0  0  0  0
    0.2602   -5.1330   -0.3313 H   0  0  0  0  0  0  0  0  0  0  0  0
  1  2  1  0
  2  3  1  0
  3  4  1  0
  4  5  1  0
  5  6  1  0
  6  7  2  0
  7  8  1  0
  8  9  2  0
  9 10  1  0
 10 11  2  0
 11 12  1  0
 12 13  2  0
 13 14  1  0
 14 15  1  0
 14 16  2  0
  9 17  1  0
 17 18  2  0
 18 19  1  0
 19 20  2  0
 20 21  1  0
 21 22  2  0
 22 23  1  0
 23 24  2  0
 24 25  1  0
 25 26  1  0
 26 27  2  0
 27 28  1  0
 28 29  2  0
 29 30  1  0
 30 31  1  0
 30 32  2  0
 25 33  2  0
 33 34  1  0
 34 35  2  0
 35 36  1  0
 36 37  1  0
 37 38  1  0
 38 39  1  0
 39 40  1  0
 36 41  1  0
 41 42  2  0
 42  5  1  0
 18  6  1  0
 42 19  1  0
 16 10  1  0
 41 22  1  0
 35 23  1  0
 32 26  1  0
  1 43  1  0
  1 44  1  0
  1 45  1  0
  2 46  1  0
  2 47  1  0
  3 48  1  0
  3 49  1  0
  4 50  1  0
  4 51  1  0
  7 52  1  0
  8 53  1  0
 11 54  1  0
 12 55  1  0
 13 56  1  0
 16 57  1  0
 17 58  1  0
 20 59  1  0
 21 60  1  0
 24 61  1  0
 27 62  1  0
 28 63  1  0
 29 64  1  0
 32 65  1  0
 33 66  1  0
 34 67  1  0
 37 68  1  0
 37 69  1  0
 38 70  1  0
 38 71  1  0
 39 72  1  0
 39 73  1  0
 40 74  1  0
 40 75  1  0
 40 76  1  0
M  END
