
     RDKit          3D

 77 82  0  0  0  0  0  0  0  0999 V2000
   -2.9123    5.6148   -1.4262 C   0  0  0  0  0  0  0  0  0  0  0  0
   -3.1141    4.7433   -0.4822 C   0  0  0  0  0  0  0  0  0  0  0  0
   -2.0923    3.8288    0.0630 C   0  0  0  0  0  0  0  0  0  0  0  0
   -0.7488    4.0680    0.1445 C   0  0  0  0  0  0  0  0  0  0  0  0
   -0.0537    5.3546   -0.2520 C   0  0  0  0  0  0  0  0  0  0  0  0
   -0.1653    2.9029    0.6989 C   0  0  0  0  0  0  0  0  0  0  0  0
    1.2228    2.8600    0.8947 C   0  0  0  0  0  0  0  0  0  0  0  0
    2.1379    1.8766    0.6476 C   0  0  0  0  0  0  0  0  0  0  0  0
    1.7171    0.8405   -0.1421 N   0  0  0  0  0  0  0  0  0  0  0  0
    2.6192   -0.1987   -0.0116 C   0  0  0  0  0  0  0  0  0  0  0  0
    2.0850   -1.4579   -0.1787 C   0  0  0  0  0  0  0  0  0  0  0  0
    0.8096   -1.8773   -0.2683 C   0  0  0  0  0  0  0  0  0  0  0  0
   -0.3968   -1.4203   -0.6023 N   0  0  0  0  0  0  0  0  0  0  0  0
   -1.2792   -2.4088   -0.4020 C   0  0  0  0  0  0  0  0  0  0  0  0
   -2.6761   -2.4519   -0.5524 C   0  0  0  0  0  0  0  0  0  0  0  0
   -3.5330   -1.3978   -0.2773 C   0  0  0  0  0  0  0  0  0  0  0  0
   -3.0090   -0.1930    0.0401 N   0  0  0  0  0  0  0  0  0  0  0  0
   -3.9939    0.6985    0.2676 C   0  0  0  0  0  0  0  0  0  0  0  0
   -3.5974    1.9909    0.6045 C   0  0  0  0  0  0  0  0  0  0  0  0
   -2.2948    2.5162    0.5744 C   0  0  0  0  0  0  0  0  0  0  0  0
   -1.1216    1.9970    0.9445 N   0  0  0  0  0  0  0  0  0  0  0  0
   -5.2759    0.0228    0.0845 C   0  0  0  0  0  0  0  0  0  0  0  0
   -6.6181    0.6420    0.2383 C   0  0  0  0  0  0  0  0  0  0  0  0
   -4.9567   -1.2377   -0.2430 C   0  0  0  0  0  0  0  0  0  0  0  0
   -6.0006   -2.2732   -0.5191 C   0  0  0  0  0  0  0  0  0  0  0  0
   -5.8383   -3.4157    0.4673 C   0  0  0  0  0  0  0  0  0  0  0  0
   -0.5991   -3.5487    0.0770 C   0  0  0  0  0  0  0  0  0  0  0  0
   -1.1407   -4.9043    0.4372 C   0  0  0  0  0  0  0  0  0  0  0  0
    0.7319   -3.2112    0.1622 C   0  0  0  0  0  0  0  0  0  0  0  0
    2.0764   -3.6689    0.4995 C   0  0  0  0  0  0  0  0  0  0  0  0
    2.4044   -4.5987    1.2209 O   0  0  0  0  0  0  0  0  0  0  0  0
    2.9574   -2.7109   -0.2620 C   0  0  0  0  0  0  0  0  0  0  0  0
    3.9414    0.4114    0.2899 C   0  0  1  0  0  0  0  0  0  0  0  0
    4.6510    0.8817   -0.9529 C   0  0  0  0  0  0  0  0  0  0  0  0
    4.9357   -0.1946   -1.9479 C   0  0  0  0  0  0  0  0  0  0  0  0
    5.7932   -1.2650   -1.4238 C   0  0  0  0  0  0  0  0  0  0  0  0
    6.0646   -2.2228   -2.2226 O   0  0  0  0  0  0  0  0  0  0  0  0
    6.3263   -1.3316   -0.1655 O   0  0  0  0  0  0  0  0  0  0  0  0
    7.1438   -2.4134    0.2357 C   0  0  0  0  0  0  0  0  0  0  0  0
    3.5602    1.6556    1.0557 C   0  0  2  0  0  0  0  0  0  0  0  0
    3.7467    1.5349    2.5281 C   0  0  0  0  0  0  0  0  0  0  0  0
   -1.9692    5.7671   -1.9207 H   0  0  0  0  0  0  0  0  0  0  0  0
   -3.7445    6.2576   -1.7706 H   0  0  0  0  0  0  0  0  0  0  0  0
   -4.1081    4.6841   -0.0570 H   0  0  0  0  0  0  0  0  0  0  0  0
    0.2283    5.2910   -1.3013 H   0  0  0  0  0  0  0  0  0  0  0  0
   -0.7334    6.1666   -0.0037 H   0  0  0  0  0  0  0  0  0  0  0  0
    0.9116    5.4235    0.3172 H   0  0  0  0  0  0  0  0  0  0  0  0
    1.7348    3.7767    1.3120 H   0  0  0  0  0  0  0  0  0  0  0  0
   -0.5407   -0.3999   -0.9899 H   0  0  0  0  0  0  0  0  0  0  0  0
   -3.1740   -3.3520   -0.8936 H   0  0  0  0  0  0  0  0  0  0  0  0
   -4.4675    2.6183    0.9008 H   0  0  0  0  0  0  0  0  0  0  0  0
   -0.9612    0.9858    1.3995 H   0  0  0  0  0  0  0  0  0  0  0  0
   -6.5013    1.7446    0.1147 H   0  0  0  0  0  0  0  0  0  0  0  0
   -7.3611    0.2212   -0.4569 H   0  0  0  0  0  0  0  0  0  0  0  0
   -6.9623    0.4718    1.2800 H   0  0  0  0  0  0  0  0  0  0  0  0
   -6.9979   -1.8535   -0.4243 H   0  0  0  0  0  0  0  0  0  0  0  0
   -5.7871   -2.6474   -1.5509 H   0  0  0  0  0  0  0  0  0  0  0  0
   -6.7366   -3.4628    1.1395 H   0  0  0  0  0  0  0  0  0  0  0  0
   -4.9771   -3.2655    1.1490 H   0  0  0  0  0  0  0  0  0  0  0  0
   -5.8101   -4.3655   -0.0774 H   0  0  0  0  0  0  0  0  0  0  0  0
   -2.0189   -5.0987   -0.2123 H   0  0  0  0  0  0  0  0  0  0  0  0
   -0.3687   -5.6380    0.1352 H   0  0  0  0  0  0  0  0  0  0  0  0
   -1.3757   -4.9871    1.5048 H   0  0  0  0  0  0  0  0  0  0  0  0
    3.0177   -3.0950   -1.2742 H   0  0  0  0  0  0  0  0  0  0  0  0
    3.8823   -2.6074    0.2955 H   0  0  0  0  0  0  0  0  0  0  0  0
    4.5837   -0.2163    0.9181 H   0  0  0  0  0  0  0  0  0  0  0  0
    5.5976    1.3503   -0.6382 H   0  0  0  0  0  0  0  0  0  0  0  0
    3.9590    1.6150   -1.4512 H   0  0  0  0  0  0  0  0  0  0  0  0
    5.4634    0.2768   -2.8023 H   0  0  0  0  0  0  0  0  0  0  0  0
    3.9990   -0.6155   -2.3684 H   0  0  0  0  0  0  0  0  0  0  0  0
    7.3364   -3.1245   -0.6117 H   0  0  0  0  0  0  0  0  0  0  0  0
    6.6660   -3.0213    1.0377 H   0  0  0  0  0  0  0  0  0  0  0  0
    8.1144   -2.0731    0.6319 H   0  0  0  0  0  0  0  0  0  0  0  0
    4.1166    2.5565    0.7131 H   0  0  0  0  0  0  0  0  0  0  0  0
    2.7734    1.5042    3.0439 H   0  0  0  0  0  0  0  0  0  0  0  0
    4.3047    2.4174    2.9597 H   0  0  0  0  0  0  0  0  0  0  0  0
    4.3993    0.6571    2.8069 H   0  0  0  0  0  0  0  0  0  0  0  0
  1  2  2  3
  2  3  1  0
  3  4  2  0
  4  5  1  0
  4  6  1  0
  6  7  2  0
  7  8  1  0
  8  9  2  0
  9 10  1  0
 10 11  2  0
 11 12  1  0
 12 13  1  0
 13 14  1  0
 14 15  1  0
 15 16  2  0
 16 17  1  0
 17 18  2  0
 18 19  1  0
 19 20  2  0
 20 21  1  0
 18 22  1  0
 22 23  1  0
 22 24  2  0
 24 25  1  0
 25 26  1  0
 14 27  2  0
 27 28  1  0
 27 29  1  0
 29 30  1  0
 30 31  2  0
 30 32  1  0
 10 33  1  0
 33 34  1  0
 34 35  1  0
 35 36  1  0
 36 37  2  0
 36 38  1  0
 38 39  1  0
 33 40  1  0
 40 41  1  0
 20  3  1  0
 21  6  1  0
 40  8  1  0
 32 11  1  0
 29 12  2  0
 24 16  1  0
  1 42  1  0
  1 43  1  0
  2 44  1  0
  5 45  1  0
  5 46  1  0
  5 47  1  0
  7 48  1  0
 13 49  1  0
 15 50  1  0
 19 51  1  0
 21 52  1  0
 23 53  1  0
 23 54  1  0
 23 55  1  0
 25 56  1  0
 25 57  1  0
 26 58  1  0
 26 59  1  0
 26 60  1  0
 28 61  1  0
 28 62  1  0
 28 63  1  0
 32 64  1  0
 32 65  1  0
 33 66  1  1
 34 67  1  0
 34 68  1  0
 35 69  1  0
 35 70  1  0
 39 71  1  0
 39 72  1  0
 39 73  1  0
 40 74  1  6
 41 75  1  0
 41 76  1  0
 41 77  1  0
M  END
