
     RDKit          3D

122125  0  0  0  0  0  0  0  0999 V2000
   16.7811    3.4431   -1.1879 C   0  0  0  0  0  0  0  0  0  0  0  0
   15.3307    3.4317   -1.4769 C   0  0  0  0  0  0  0  0  0  0  0  0
   14.4412    3.0728   -0.3092 C   0  0  0  0  0  0  0  0  0  0  0  0
   14.6714    1.7006    0.2642 C   0  0  0  0  0  0  0  0  0  0  0  0
   13.6974    1.4644    1.4127 C   0  0  0  0  0  0  0  0  0  0  0  0
   12.2742    1.6576    1.0245 C   0  0  0  0  0  0  0  0  0  0  0  0
   11.5748    0.8465    0.1301 N   0  0  0  0  0  0  0  0  0  0  0  0
   11.8289    0.4994   -1.2581 C   0  0  0  0  0  0  0  0  0  0  0  0
   11.0664   -0.6185   -1.8357 C   0  0  0  0  0  0  0  0  0  0  0  0
   11.3328   -1.9989   -1.5957 C   0  0  0  0  0  0  0  0  0  0  0  0
   11.3922   -2.6573   -0.3091 C   0  0  0  0  0  0  0  0  0  0  0  0
   12.4618   -2.3411    0.6457 C   0  0  0  0  0  0  0  0  0  0  0  0
   12.2507   -3.2450    1.8842 C   0  0  0  0  0  0  0  0  0  0  0  0
   10.2019    0.5517    0.4839 C   0  0  0  0  0  0  0  0  0  0  0  0
    9.3304    1.3839   -0.3175 C   0  0  0  0  0  0  0  0  0  0  0  0
    7.9850    1.2854   -0.1827 C   0  0  0  0  0  0  0  0  0  0  0  0
    7.4206    0.3825    0.7185 C   0  0  0  0  0  0  0  0  0  0  0  0
    5.9719    0.3456    0.7175 C   0  0  0  0  0  0  0  0  0  0  0  0
    4.7428    0.3279    0.7237 C   0  0  0  0  0  0  0  0  0  0  0  0
    3.3420    0.3203    0.7303 C   0  0  0  0  0  0  0  0  0  0  0  0
    2.5124    1.4049    0.8056 C   0  0  0  0  0  0  0  0  0  0  0  0
    1.1081    1.3449    0.7949 C   0  0  0  0  0  0  0  0  0  0  0  0
    0.5280    0.1110    0.6938 C   0  0  0  0  0  0  0  0  0  0  0  0
   -0.9370   -0.1234    0.6518 C   0  0  0  0  0  0  0  0  0  0  0  0
   -1.3838   -1.1982   -0.0919 C   0  0  0  0  0  0  0  0  0  0  0  0
   -2.6900   -1.5515   -0.1115 C   0  0  0  0  0  0  0  0  0  0  0  0
   -3.7043   -0.8428    0.6340 C   0  0  0  0  0  0  0  0  0  0  0  0
   -4.9469   -1.2438    0.5914 C   0  0  0  0  0  0  0  0  0  0  0  0
   -6.2384   -1.6715    0.5516 C   0  0  0  0  0  0  0  0  0  0  0  0
   -7.6017   -2.1172    0.5148 C   0  0  0  0  0  0  0  0  0  0  0  0
   -8.3728   -1.9723   -0.5794 C   0  0  0  0  0  0  0  0  0  0  0  0
   -9.7465   -1.9267   -0.5334 C   0  0  0  0  0  0  0  0  0  0  0  0
  -10.3735   -2.0330    0.7178 C   0  0  0  0  0  0  0  0  0  0  0  0
  -11.7898   -1.6528    0.8488 N   0  0  0  0  0  0  0  0  0  0  0  0
  -12.0475   -0.2490    0.7234 C   0  0  0  0  0  0  0  0  0  0  0  0
  -10.8567    0.6385    0.6386 C   0  0  0  0  0  0  0  0  0  0  0  0
  -11.2093    2.0219    0.1400 C   0  0  0  0  0  0  0  0  0  0  0  0
  -11.6768    1.9419   -1.3077 C   0  0  0  0  0  0  0  0  0  0  0  0
  -10.5724    1.4062   -2.1781 C   0  0  0  0  0  0  0  0  0  0  0  0
  -11.0398    1.2836   -3.6220 C   0  0  0  0  0  0  0  0  0  0  0  0
  -12.7580   -2.6215    1.1628 C   0  0  0  0  0  0  0  0  0  0  0  0
  -13.9752   -2.4132    0.2078 C   0  0  0  0  0  0  0  0  0  0  0  0
  -14.8976   -1.4176    0.8529 C   0  0  0  0  0  0  0  0  0  0  0  0
  -16.0090   -0.8336    0.1139 C   0  0  0  0  0  0  0  0  0  0  0  0
  -15.7862    0.1536   -0.9778 C   0  0  0  0  0  0  0  0  0  0  0  0
  -15.1920    1.4740   -0.4521 C   0  0  0  0  0  0  0  0  0  0  0  0
   -9.6146   -2.1988    1.8219 C   0  0  0  0  0  0  0  0  0  0  0  0
   -8.2133   -2.2583    1.8061 C   0  0  0  0  0  0  0  0  0  0  0  0
   -3.1749    0.2422    1.3574 C   0  0  0  0  0  0  0  0  0  0  0  0
   -1.8520    0.5863    1.3683 C   0  0  0  0  0  0  0  0  0  0  0  0
    1.3479   -0.9960    0.6157 C   0  0  0  0  0  0  0  0  0  0  0  0
    2.6983   -0.9396    0.6308 C   0  0  0  0  0  0  0  0  0  0  0  0
    8.2153   -0.3975    1.4692 C   0  0  0  0  0  0  0  0  0  0  0  0
    9.6345   -0.2841    1.3226 C   0  0  0  0  0  0  0  0  0  0  0  0
   17.3351    2.6327   -1.7579 H   0  0  0  0  0  0  0  0  0  0  0  0
   17.1837    4.3911   -1.5857 H   0  0  0  0  0  0  0  0  0  0  0  0
   17.0563    3.4002   -0.1012 H   0  0  0  0  0  0  0  0  0  0  0  0
   15.0042    4.4561   -1.8674 H   0  0  0  0  0  0  0  0  0  0  0  0
   15.1556    2.7463   -2.3325 H   0  0  0  0  0  0  0  0  0  0  0  0
   13.4100    3.2050   -0.6996 H   0  0  0  0  0  0  0  0  0  0  0  0
   14.5801    3.8759    0.4592 H   0  0  0  0  0  0  0  0  0  0  0  0
   14.7394    0.9147   -0.4611 H   0  0  0  0  0  0  0  0  0  0  0  0
   15.7304    1.8120    0.7262 H   0  0  0  0  0  0  0  0  0  0  0  0
   13.9090    0.5021    1.9537 H   0  0  0  0  0  0  0  0  0  0  0  0
   13.9458    2.2841    2.1423 H   0  0  0  0  0  0  0  0  0  0  0  0
   11.6412    1.6657    2.0006 H   0  0  0  0  0  0  0  0  0  0  0  0
   12.0910    2.7515    0.6879 H   0  0  0  0  0  0  0  0  0  0  0  0
   11.4878    1.4366   -1.8294 H   0  0  0  0  0  0  0  0  0  0  0  0
   12.9069    0.4642   -1.5151 H   0  0  0  0  0  0  0  0  0  0  0  0
   11.0634   -0.5013   -3.0059 H   0  0  0  0  0  0  0  0  0  0  0  0
    9.9092   -0.4143   -1.7120 H   0  0  0  0  0  0  0  0  0  0  0  0
   10.5704   -2.6549   -2.2744 H   0  0  0  0  0  0  0  0  0  0  0  0
   12.2957   -2.3020   -2.1866 H   0  0  0  0  0  0  0  0  0  0  0  0
   11.4223   -3.8022   -0.5364 H   0  0  0  0  0  0  0  0  0  0  0  0
   10.4051   -2.6399    0.2922 H   0  0  0  0  0  0  0  0  0  0  0  0
   13.4320   -2.6916    0.1835 H   0  0  0  0  0  0  0  0  0  0  0  0
   12.6223   -1.3152    0.9204 H   0  0  0  0  0  0  0  0  0  0  0  0
   13.1300   -3.1817    2.5332 H   0  0  0  0  0  0  0  0  0  0  0  0
   12.1394   -4.2612    1.4050 H   0  0  0  0  0  0  0  0  0  0  0  0
   11.2921   -2.9450    2.3368 H   0  0  0  0  0  0  0  0  0  0  0  0
    9.7467    2.1035   -1.0029 H   0  0  0  0  0  0  0  0  0  0  0  0
    7.3374    1.9287   -0.8006 H   0  0  0  0  0  0  0  0  0  0  0  0
    3.0184    2.3898    0.8834 H   0  0  0  0  0  0  0  0  0  0  0  0
    0.4999    2.2034    0.8697 H   0  0  0  0  0  0  0  0  0  0  0  0
   -0.6418   -1.7368   -0.6680 H   0  0  0  0  0  0  0  0  0  0  0  0
   -3.0847   -2.3827   -0.6799 H   0  0  0  0  0  0  0  0  0  0  0  0
   -7.8730   -1.8721   -1.5500 H   0  0  0  0  0  0  0  0  0  0  0  0
  -10.3604   -1.8217   -1.3937 H   0  0  0  0  0  0  0  0  0  0  0  0
  -12.7568    0.1280    1.5007 H   0  0  0  0  0  0  0  0  0  0  0  0
  -12.5767   -0.1442   -0.2693 H   0  0  0  0  0  0  0  0  0  0  0  0
  -10.5058    0.8003    1.7104 H   0  0  0  0  0  0  0  0  0  0  0  0
  -10.0321    0.2717    0.0546 H   0  0  0  0  0  0  0  0  0  0  0  0
  -11.9944    2.4866    0.7372 H   0  0  0  0  0  0  0  0  0  0  0  0
  -10.3092    2.6547    0.1576 H   0  0  0  0  0  0  0  0  0  0  0  0
  -12.6165    1.4213   -1.4734 H   0  0  0  0  0  0  0  0  0  0  0  0
  -11.8909    2.9944   -1.6097 H   0  0  0  0  0  0  0  0  0  0  0  0
   -9.7770    2.2237   -2.1451 H   0  0  0  0  0  0  0  0  0  0  0  0
  -10.1042    0.4904   -1.8409 H   0  0  0  0  0  0  0  0  0  0  0  0
  -11.7213    0.4526   -3.7650 H   0  0  0  0  0  0  0  0  0  0  0  0
  -10.0880    1.0705   -4.2014 H   0  0  0  0  0  0  0  0  0  0  0  0
  -11.4510    2.2396   -3.9473 H   0  0  0  0  0  0  0  0  0  0  0  0
  -13.1870   -2.5166    2.1935 H   0  0  0  0  0  0  0  0  0  0  0  0
  -12.4214   -3.6755    1.0109 H   0  0  0  0  0  0  0  0  0  0  0  0
  -14.4128   -3.4112    0.0775 H   0  0  0  0  0  0  0  0  0  0  0  0
  -13.6652   -2.0520   -0.7829 H   0  0  0  0  0  0  0  0  0  0  0  0
  -15.5004   -2.1810    1.5774 H   0  0  0  0  0  0  0  0  0  0  0  0
  -14.4530   -0.8241    1.6899 H   0  0  0  0  0  0  0  0  0  0  0  0
  -16.6337   -1.6882   -0.2986 H   0  0  0  0  0  0  0  0  0  0  0  0
  -16.7510   -0.3428    0.8485 H   0  0  0  0  0  0  0  0  0  0  0  0
  -16.7229    0.4028   -1.5126 H   0  0  0  0  0  0  0  0  0  0  0  0
  -15.0417   -0.2137   -1.7328 H   0  0  0  0  0  0  0  0  0  0  0  0
  -14.2908    1.3494    0.1400 H   0  0  0  0  0  0  0  0  0  0  0  0
  -14.9196    2.1190   -1.3280 H   0  0  0  0  0  0  0  0  0  0  0  0
  -15.9403    2.0498    0.1533 H   0  0  0  0  0  0  0  0  0  0  0  0
  -10.0915   -2.3150    2.8015 H   0  0  0  0  0  0  0  0  0  0  0  0
   -7.5838   -2.3981    2.6354 H   0  0  0  0  0  0  0  0  0  0  0  0
   -3.9342    0.7969    1.9205 H   0  0  0  0  0  0  0  0  0  0  0  0
   -1.5227    1.4671    1.9633 H   0  0  0  0  0  0  0  0  0  0  0  0
    0.8513   -1.9973    0.5308 H   0  0  0  0  0  0  0  0  0  0  0  0
    3.3410   -1.7818    0.5564 H   0  0  0  0  0  0  0  0  0  0  0  0
    7.8222   -1.1236    2.1713 H   0  0  0  0  0  0  0  0  0  0  0  0
   10.2978   -0.9141    1.9528 H   0  0  0  0  0  0  0  0  0  0  0  0
  1  2  1  0
  2  3  1  0
  3  4  1  0
  4  5  1  0
  5  6  1  0
  6  7  1  0
  7  8  1  0
  8  9  1  0
  9 10  1  0
 10 11  1  0
 11 12  1  0
 12 13  1  0
  7 14  1  0
 14 15  2  0
 15 16  1  0
 16 17  2  0
 17 18  1  0
 18 19  3  0
 19 20  1  0
 20 21  2  0
 21 22  1  0
 22 23  2  0
 23 24  1  0
 24 25  2  0
 25 26  1  0
 26 27  2  0
 27 28  1  0
 28 29  3  0
 29 30  1  0
 30 31  2  0
 31 32  1  0
 32 33  2  0
 33 34  1  0
 34 35  1  0
 35 36  1  0
 36 37  1  0
 37 38  1  0
 38 39  1  0
 39 40  1  0
 34 41  1  0
 41 42  1  0
 42 43  1  0
 43 44  1  0
 44 45  1  0
 45 46  1  0
 33 47  1  0
 47 48  2  0
 27 49  1  0
 49 50  2  0
 23 51  1  0
 51 52  2  0
 17 53  1  0
 53 54  2  0
 54 14  1  0
 52 20  1  0
 50 24  1  0
 48 30  1  0
  1 55  1  0
  1 56  1  0
  1 57  1  0
  2 58  1  0
  2 59  1  0
  3 60  1  0
  3 61  1  0
  4 62  1  0
  4 63  1  0
  5 64  1  0
  5 65  1  0
  6 66  1  0
  6 67  1  0
  8 68  1  0
  8 69  1  0
  9 70  1  0
  9 71  1  0
 10 72  1  0
 10 73  1  0
 11 74  1  0
 11 75  1  0
 12 76  1  0
 12 77  1  0
 13 78  1  0
 13 79  1  0
 13 80  1  0
 15 81  1  0
 16 82  1  0
 21 83  1  0
 22 84  1  0
 25 85  1  0
 26 86  1  0
 31 87  1  0
 32 88  1  0
 35 89  1  0
 35 90  1  0
 36 91  1  0
 36 92  1  0
 37 93  1  0
 37 94  1  0
 38 95  1  0
 38 96  1  0
 39 97  1  0
 39 98  1  0
 40 99  1  0
 40100  1  0
 40101  1  0
 41102  1  0
 41103  1  0
 42104  1  0
 42105  1  0
 43106  1  0
 43107  1  0
 44108  1  0
 44109  1  0
 45110  1  0
 45111  1  0
 46112  1  0
 46113  1  0
 46114  1  0
 47115  1  0
 48116  1  0
 49117  1  0
 50118  1  0
 51119  1  0
 52120  1  0
 53121  1  0
 54122  1  0
M  END
