
     RDKit          3D

 27 30  0  0  0  0  0  0  0  0999 V2000
   -4.8052    1.5597    0.1546 C   0  0  0  0  0  0  0  0  0  0  0  0
   -5.3864    0.3412   -0.0632 C   0  0  0  0  0  0  0  0  0  0  0  0
   -4.0471   -0.6877   -0.2853 S   0  0  0  0  0  0  0  0  0  0  0  0
   -2.7923    0.4520   -0.0964 C   0  0  0  0  0  0  0  0  0  0  0  0
   -1.3237    0.2543   -0.1644 C   0  0  0  0  0  0  0  0  0  0  0  0
   -0.5154    1.3432    0.0242 C   0  0  0  0  0  0  0  0  0  0  0  0
    0.8413    1.1520   -0.0402 C   0  0  0  0  0  0  0  0  0  0  0  0
    1.3284   -0.1162   -0.2897 C   0  0  0  0  0  0  0  0  0  0  0  0
    2.7979   -0.2298   -0.3417 C   0  0  0  0  0  0  0  0  0  0  0  0
    3.6058   -1.3006   -0.5606 C   0  0  0  0  0  0  0  0  0  0  0  0
    4.9312   -1.1134   -0.5529 C   0  0  0  0  0  0  0  0  0  0  0  0
    5.3875    0.1575   -0.3226 C   0  0  0  0  0  0  0  0  0  0  0  0
    3.9485    1.0463   -0.1249 S   0  0  0  0  0  0  0  0  0  0  0  0
    0.5053   -1.2192   -0.4807 C   0  0  0  0  0  0  0  0  0  0  0  0
    0.9147   -2.4624   -0.7238 N   0  0  0  0  0  0  0  0  0  0  0  0
   -0.4905   -3.3568   -0.8633 S   0  0  0  0  0  0  0  0  0  0  0  0
   -1.5939   -2.1222   -0.6073 N   0  0  0  0  0  0  0  0  0  0  0  0
   -0.8390   -1.0397   -0.4187 C   0  0  0  0  0  0  0  0  0  0  0  0
   -3.4629    1.6177    0.1375 C   0  0  0  0  0  0  0  0  0  0  0  0
   -5.4646    2.4424    0.3350 H   0  0  0  0  0  0  0  0  0  0  0  0
   -6.4685    0.1142   -0.0834 H   0  0  0  0  0  0  0  0  0  0  0  0
   -0.9163    2.3457    0.2218 H   0  0  0  0  0  0  0  0  0  0  0  0
    1.4870    1.9886    0.1043 H   0  0  0  0  0  0  0  0  0  0  0  0
    3.1650   -2.3053   -0.7409 H   0  0  0  0  0  0  0  0  0  0  0  0
    5.6741   -1.9309   -0.7226 H   0  0  0  0  0  0  0  0  0  0  0  0
    6.4456    0.4836   -0.2831 H   0  0  0  0  0  0  0  0  0  0  0  0
   -2.9265    2.5859    0.3090 H   0  0  0  0  0  0  0  0  0  0  0  0
  1  2  2  0
  2  3  1  0
  3  4  1  0
  4  5  1  0
  5  6  2  0
  6  7  1  0
  7  8  2  0
  8  9  1  0
  9 10  2  0
 10 11  1  0
 11 12  2  0
 12 13  1  0
  8 14  1  0
 14 15  2  0
 15 16  1  0
 16 17  1  0
 17 18  2  0
  4 19  2  0
 19  1  1  0
 18  5  1  0
 13  9  1  0
 18 14  1  0
  1 20  1  0
  2 21  1  0
  6 22  1  0
  7 23  1  0
 10 24  1  0
 11 25  1  0
 12 26  1  0
 19 27  1  0
M  END
