
     RDKit          3D

100101  0  0  0  0  0  0  0  0999 V2000
    9.0390   -3.8468    3.1618 C   0  0  0  0  0  0  0  0  0  0  0  0
    9.8509   -3.2520    2.0501 C   0  0  0  0  0  0  0  0  0  0  0  0
    8.9700   -2.3821    1.1766 C   0  0  0  0  0  0  0  0  0  0  0  0
    7.7946   -3.2007    0.6467 C   0  0  0  0  0  0  0  0  0  0  0  0
    6.8579   -2.2791   -0.1122 C   0  0  0  0  0  0  0  0  0  0  0  0
    6.3626   -1.1838    0.7354 C   0  0  0  0  0  0  0  0  0  0  0  0
    5.8619   -0.0745    0.0163 N   0  0  0  0  0  0  0  0  0  0  0  0
    6.9104    0.6593   -0.7681 C   0  0  0  0  0  0  0  0  0  0  0  0
    7.8974    1.1841    0.2269 C   0  0  0  0  0  0  0  0  0  0  0  0
    8.8397    2.1550   -0.3160 C   0  0  0  0  0  0  0  0  0  0  0  0
    9.9410    1.6963   -1.2133 C   0  0  0  0  0  0  0  0  0  0  0  0
   10.6504    3.0483   -1.6475 C   0  0  0  0  0  0  0  0  0  0  0  0
   10.9917    3.8107   -0.3816 C   0  0  0  0  0  0  0  0  0  0  0  0
    4.5510    0.4214   -0.0595 C   0  0  0  0  0  0  0  0  0  0  0  0
    3.9507    0.6024   -1.3005 C   0  0  0  0  0  0  0  0  0  0  0  0
    2.6805    0.9778   -1.6485 C   0  0  0  0  0  0  0  0  0  0  0  0
    1.8433    1.2127   -0.3253 C   0  0  0  0  0  0  0  0  0  0  0  0
    0.4810    1.2288   -0.3646 C   0  0  0  0  0  0  0  0  0  0  0  0
   -0.8169    1.2585   -0.3845 C   0  0  0  0  0  0  0  0  0  0  0  0
   -2.1167    1.2909   -0.4149 C   0  0  0  0  0  0  0  0  0  0  0  0
   -2.9544    2.3950   -0.6183 C   0  0  0  0  0  0  0  0  0  0  0  0
   -4.2939    2.2453   -0.4865 C   0  0  0  0  0  0  0  0  0  0  0  0
   -4.9757    1.0907   -0.1792 C   0  0  0  0  0  0  0  0  0  0  0  0
   -6.3679    0.8641   -0.2295 N   0  0  0  0  0  0  0  0  0  0  0  0
   -6.8896    0.4448   -1.4950 C   0  0  0  0  0  0  0  0  0  0  0  0
   -6.9878   -0.9948   -1.7235 C   0  0  0  0  0  0  0  0  0  0  0  0
   -7.8745   -1.8188   -0.9040 C   0  0  0  0  0  0  0  0  0  0  0  0
   -7.8772   -3.3145   -1.3757 C   0  0  0  0  0  0  0  0  0  0  0  0
   -8.9480   -3.9398   -0.4784 C   0  0  0  0  0  0  0  0  0  0  0  0
   -8.4782   -3.7106    0.9328 C   0  0  0  0  0  0  0  0  0  0  0  0
   -7.2714    1.0499    0.9219 C   0  0  0  0  0  0  0  0  0  0  0  0
   -8.0516    2.2680    0.4983 C   0  0  0  0  0  0  0  0  0  0  0  0
   -9.3199    2.5042    1.3121 C   0  0  0  0  0  0  0  0  0  0  0  0
  -10.2812    1.4124    1.3327 C   0  0  0  0  0  0  0  0  0  0  0  0
  -10.4700    0.8114   -0.0600 C   0  0  0  0  0  0  0  0  0  0  0  0
  -10.9005    1.7964   -1.0901 C   0  0  0  0  0  0  0  0  0  0  0  0
   -4.1308   -0.0126    0.0297 C   0  0  0  0  0  0  0  0  0  0  0  0
   -2.8244    0.0594   -0.0794 C   0  0  0  0  0  0  0  0  0  0  0  0
    2.4877    1.0273    0.7966 C   0  0  0  0  0  0  0  0  0  0  0  0
    3.8254    0.6378    1.0154 C   0  0  0  0  0  0  0  0  0  0  0  0
    8.0325   -3.4379    3.2888 H   0  0  0  0  0  0  0  0  0  0  0  0
    9.0036   -4.9347    2.9585 H   0  0  0  0  0  0  0  0  0  0  0  0
    9.5470   -3.6448    4.1591 H   0  0  0  0  0  0  0  0  0  0  0  0
   10.4060   -4.0260    1.4476 H   0  0  0  0  0  0  0  0  0  0  0  0
   10.6245   -2.5251    2.4554 H   0  0  0  0  0  0  0  0  0  0  0  0
    8.7135   -1.5079    1.7990 H   0  0  0  0  0  0  0  0  0  0  0  0
    9.6191   -1.9992    0.3829 H   0  0  0  0  0  0  0  0  0  0  0  0
    7.3492   -3.8825    1.3323 H   0  0  0  0  0  0  0  0  0  0  0  0
    8.2092   -3.8785   -0.1912 H   0  0  0  0  0  0  0  0  0  0  0  0
    7.2944   -1.9345   -1.0481 H   0  0  0  0  0  0  0  0  0  0  0  0
    5.9967   -2.9565   -0.4738 H   0  0  0  0  0  0  0  0  0  0  0  0
    5.6173   -1.5650    1.5255 H   0  0  0  0  0  0  0  0  0  0  0  0
    7.1474   -0.7667    1.4363 H   0  0  0  0  0  0  0  0  0  0  0  0
    6.4378    1.5131   -1.2515 H   0  0  0  0  0  0  0  0  0  0  0  0
    7.3443   -0.0202   -1.4767 H   0  0  0  0  0  0  0  0  0  0  0  0
    7.5669    1.2300    1.2770 H   0  0  0  0  0  0  0  0  0  0  0  0
    8.5897    0.1790    0.3181 H   0  0  0  0  0  0  0  0  0  0  0  0
    9.3523    2.7509    0.4867 H   0  0  0  0  0  0  0  0  0  0  0  0
    8.2232    2.8949   -0.9505 H   0  0  0  0  0  0  0  0  0  0  0  0
   10.7443    1.0999   -0.7266 H   0  0  0  0  0  0  0  0  0  0  0  0
    9.5978    1.2040   -2.1052 H   0  0  0  0  0  0  0  0  0  0  0  0
   11.5704    2.8297   -2.1883 H   0  0  0  0  0  0  0  0  0  0  0  0
   10.0011    3.6562   -2.2933 H   0  0  0  0  0  0  0  0  0  0  0  0
   10.0408    4.4131   -0.0695 H   0  0  0  0  0  0  0  0  0  0  0  0
   11.2997    3.2648    0.4773 H   0  0  0  0  0  0  0  0  0  0  0  0
   11.6743    4.6658   -0.6446 H   0  0  0  0  0  0  0  0  0  0  0  0
    4.6062    0.4213   -2.1656 H   0  0  0  0  0  0  0  0  0  0  0  0
    2.1469    1.1133   -2.4801 H   0  0  0  0  0  0  0  0  0  0  0  0
   -2.4047    3.3039   -0.7862 H   0  0  0  0  0  0  0  0  0  0  0  0
   -4.9338    3.1241   -0.6557 H   0  0  0  0  0  0  0  0  0  0  0  0
   -6.2283    0.8650   -2.3148 H   0  0  0  0  0  0  0  0  0  0  0  0
   -7.9101    0.8792   -1.7699 H   0  0  0  0  0  0  0  0  0  0  0  0
   -5.9498   -1.4631   -1.5911 H   0  0  0  0  0  0  0  0  0  0  0  0
   -7.1587   -1.1829   -2.8366 H   0  0  0  0  0  0  0  0  0  0  0  0
   -8.9251   -1.5900   -0.8178 H   0  0  0  0  0  0  0  0  0  0  0  0
   -7.4334   -1.8619    0.1591 H   0  0  0  0  0  0  0  0  0  0  0  0
   -6.9122   -3.7847   -1.2200 H   0  0  0  0  0  0  0  0  0  0  0  0
   -8.1933   -3.2224   -2.4201 H   0  0  0  0  0  0  0  0  0  0  0  0
   -9.9244   -3.4775   -0.6879 H   0  0  0  0  0  0  0  0  0  0  0  0
   -8.9807   -5.0553   -0.6871 H   0  0  0  0  0  0  0  0  0  0  0  0
   -8.8738   -4.5190    1.5805 H   0  0  0  0  0  0  0  0  0  0  0  0
   -7.3503   -3.7026    0.9687 H   0  0  0  0  0  0  0  0  0  0  0  0
   -8.8348   -2.7322    1.2829 H   0  0  0  0  0  0  0  0  0  0  0  0
   -6.5830    1.3201    1.7830 H   0  0  0  0  0  0  0  0  0  0  0  0
   -7.8158    0.1639    1.1143 H   0  0  0  0  0  0  0  0  0  0  0  0
   -8.1497    2.4503   -0.5458 H   0  0  0  0  0  0  0  0  0  0  0  0
   -7.3538    3.1433    0.8306 H   0  0  0  0  0  0  0  0  0  0  0  0
   -9.7618    3.5024    1.0691 H   0  0  0  0  0  0  0  0  0  0  0  0
   -8.9559    2.6146    2.3989 H   0  0  0  0  0  0  0  0  0  0  0  0
  -10.1022    0.5838    2.0131 H   0  0  0  0  0  0  0  0  0  0  0  0
  -11.2883    1.8428    1.6049 H   0  0  0  0  0  0  0  0  0  0  0  0
   -9.5556    0.2617   -0.3142 H   0  0  0  0  0  0  0  0  0  0  0  0
  -11.3145    0.1010    0.0462 H   0  0  0  0  0  0  0  0  0  0  0  0
  -10.0466    2.0910   -1.7999 H   0  0  0  0  0  0  0  0  0  0  0  0
  -11.6475    1.3754   -1.7708 H   0  0  0  0  0  0  0  0  0  0  0  0
  -11.2665    2.7458   -0.6525 H   0  0  0  0  0  0  0  0  0  0  0  0
   -4.6713   -0.9443    0.3401 H   0  0  0  0  0  0  0  0  0  0  0  0
   -2.1442   -0.8209    0.1050 H   0  0  0  0  0  0  0  0  0  0  0  0
    1.8819    1.1592    1.7607 H   0  0  0  0  0  0  0  0  0  0  0  0
    4.0753    0.5301    2.0954 H   0  0  0  0  0  0  0  0  0  0  0  0
  1  2  1  0
  2  3  1  0
  3  4  1  0
  4  5  1  0
  5  6  1  0
  6  7  1  0
  7  8  1  0
  8  9  1  0
  9 10  1  0
 10 11  1  0
 11 12  1  0
 12 13  1  0
  7 14  1  0
 14 15  2  0
 15 16  1  0
 16 17  2  0
 17 18  1  0
 18 19  3  0
 19 20  1  0
 20 21  2  0
 21 22  1  0
 22 23  2  0
 23 24  1  0
 24 25  1  0
 25 26  1  0
 26 27  1  0
 27 28  1  0
 28 29  1  0
 29 30  1  0
 24 31  1  0
 31 32  1  0
 32 33  1  0
 33 34  1  0
 34 35  1  0
 35 36  1  0
 23 37  1  0
 37 38  2  0
 17 39  1  0
 39 40  2  0
 40 14  1  0
 38 20  1  0
  1 41  1  0
  1 42  1  0
  1 43  1  0
  2 44  1  0
  2 45  1  0
  3 46  1  0
  3 47  1  0
  4 48  1  0
  4 49  1  0
  5 50  1  0
  5 51  1  0
  6 52  1  0
  6 53  1  0
  8 54  1  0
  8 55  1  0
  9 56  1  0
  9 57  1  0
 10 58  1  0
 10 59  1  0
 11 60  1  0
 11 61  1  0
 12 62  1  0
 12 63  1  0
 13 64  1  0
 13 65  1  0
 13 66  1  0
 15 67  1  0
 16 68  1  0
 21 69  1  0
 22 70  1  0
 25 71  1  0
 25 72  1  0
 26 73  1  0
 26 74  1  0
 27 75  1  0
 27 76  1  0
 28 77  1  0
 28 78  1  0
 29 79  1  0
 29 80  1  0
 30 81  1  0
 30 82  1  0
 30 83  1  0
 31 84  1  0
 31 85  1  0
 32 86  1  0
 32 87  1  0
 33 88  1  0
 33 89  1  0
 34 90  1  0
 34 91  1  0
 35 92  1  0
 35 93  1  0
 36 94  1  0
 36 95  1  0
 36 96  1  0
 37 97  1  0
 38 98  1  0
 39 99  1  0
 40100  1  0
M  END
