
     RDKit          3D

 45 47  0  0  0  0  0  0  0  0999 V2000
   -5.5719   -3.5345    0.7651 C   0  0  0  0  0  0  0  0  0  0  0  0
   -5.6080   -2.1190    0.8268 N   0  0  0  0  0  0  0  0  0  0  0  0
   -6.8723   -1.4170    0.9355 C   0  0  0  0  0  0  0  0  0  0  0  0
   -4.4114   -1.3315    0.7888 C   0  0  0  0  0  0  0  0  0  0  0  0
   -4.5149    0.0340    0.8657 C   0  0  0  0  0  0  0  0  0  0  0  0
   -3.4471    0.9034    0.8535 C   0  0  0  0  0  0  0  0  0  0  0  0
   -2.1447    0.3089    0.7519 C   0  0  0  0  0  0  0  0  0  0  0  0
   -1.0705    1.2821    0.8195 C   0  0  0  0  0  0  0  0  0  0  0  0
   -0.0636    1.3897    0.0298 C   0  0  0  0  0  0  0  0  0  0  0  0
    0.2700    0.5669   -1.1473 C   0  0  0  0  0  0  0  0  0  0  0  0
    1.7668    0.7666   -1.4067 C   0  0  0  0  0  0  0  0  0  0  0  0
    2.2080    1.7829   -0.4567 C   0  0  0  0  0  0  0  0  0  0  0  0
    3.4332    2.1437   -0.0819 C   0  0  0  0  0  0  0  0  0  0  0  0
    4.5945    1.4923   -0.6395 C   0  0  0  0  0  0  0  0  0  0  0  0
    5.5667    1.0531    0.2729 C   0  0  0  0  0  0  0  0  0  0  0  0
    6.7054    0.4433   -0.2053 C   0  0  0  0  0  0  0  0  0  0  0  0
    6.9085    0.2545   -1.5588 C   0  0  0  0  0  0  0  0  0  0  0  0
    8.1139   -0.4399   -2.0708 C   0  0  0  0  0  0  0  0  0  0  0  0
    9.0605   -0.9860   -2.4949 N   0  0  0  0  0  0  0  0  0  0  0  0
    5.9427    0.6912   -2.4312 C   0  0  0  0  0  0  0  0  0  0  0  0
    4.7715    1.3187   -1.9772 C   0  0  0  0  0  0  0  0  0  0  0  0
    0.9990    2.4369    0.1290 C   0  0  0  0  0  0  0  0  0  0  0  0
    0.8793    3.5830    0.5976 O   0  0  0  0  0  0  0  0  0  0  0  0
   -2.0651   -0.9986    0.6786 C   0  0  0  0  0  0  0  0  0  0  0  0
   -3.1354   -1.9067    0.6880 C   0  0  0  0  0  0  0  0  0  0  0  0
   -6.5393   -3.8531    0.2600 H   0  0  0  0  0  0  0  0  0  0  0  0
   -5.7118   -3.9675    1.8067 H   0  0  0  0  0  0  0  0  0  0  0  0
   -4.7052   -3.9269    0.2357 H   0  0  0  0  0  0  0  0  0  0  0  0
   -6.8273   -0.7938    1.8795 H   0  0  0  0  0  0  0  0  0  0  0  0
   -7.6764   -2.1349    1.0841 H   0  0  0  0  0  0  0  0  0  0  0  0
   -7.0426   -0.7418    0.0632 H   0  0  0  0  0  0  0  0  0  0  0  0
   -5.5203    0.4671    0.9478 H   0  0  0  0  0  0  0  0  0  0  0  0
   -3.4781    1.9594    0.9084 H   0  0  0  0  0  0  0  0  0  0  0  0
   -1.1404    2.0402    1.6613 H   0  0  0  0  0  0  0  0  0  0  0  0
   -0.0116   -0.4939   -1.0777 H   0  0  0  0  0  0  0  0  0  0  0  0
   -0.2640    0.9380   -2.0844 H   0  0  0  0  0  0  0  0  0  0  0  0
    2.2175   -0.2275   -1.2806 H   0  0  0  0  0  0  0  0  0  0  0  0
    1.8960    1.0172   -2.4798 H   0  0  0  0  0  0  0  0  0  0  0  0
    3.5324    2.9398    0.6621 H   0  0  0  0  0  0  0  0  0  0  0  0
    5.4275    1.2078    1.3576 H   0  0  0  0  0  0  0  0  0  0  0  0
    7.4961    0.0834    0.4442 H   0  0  0  0  0  0  0  0  0  0  0  0
    6.0812    0.5585   -3.4749 H   0  0  0  0  0  0  0  0  0  0  0  0
    4.0748    1.6546   -2.7565 H   0  0  0  0  0  0  0  0  0  0  0  0
   -1.0811   -1.4929    0.6291 H   0  0  0  0  0  0  0  0  0  0  0  0
   -3.0422   -2.9516    0.6384 H   0  0  0  0  0  0  0  0  0  0  0  0
  1  2  1  0
  2  3  1  0
  2  4  1  0
  4  5  2  0
  5  6  1  0
  6  7  2  0
  7  8  1  0
  8  9  2  0
  9 10  1  0
 10 11  1  0
 11 12  1  0
 12 13  2  0
 13 14  1  0
 14 15  2  0
 15 16  1  0
 16 17  2  0
 17 18  1  0
 18 19  3  0
 17 20  1  0
 20 21  2  0
 12 22  1  0
 22 23  2  0
  7 24  1  0
 24 25  2  0
 25  4  1  0
 22  9  1  0
 21 14  1  0
  1 26  1  0
  1 27  1  0
  1 28  1  0
  3 29  1  0
  3 30  1  0
  3 31  1  0
  5 32  1  0
  6 33  1  0
  8 34  1  0
 10 35  1  0
 10 36  1  0
 11 37  1  0
 11 38  1  0
 13 39  1  0
 15 40  1  0
 16 41  1  0
 20 42  1  0
 21 43  1  0
 24 44  1  0
 25 45  1  0
M  END
