
     RDKit          3D

 52 55  0  0  0  0  0  0  0  0999 V2000
    7.0041    1.1461    2.0685 C   0  0  0  0  0  0  0  0  0  0  0  0
    6.4565    1.3382    0.7335 N   0  0  0  0  0  0  0  0  0  0  0  0
    7.1815    2.0377   -0.3041 C   0  0  0  0  0  0  0  0  0  0  0  0
    5.1569    0.7971    0.4982 C   0  0  0  0  0  0  0  0  0  0  0  0
    5.0683   -0.4999    0.0388 C   0  0  0  0  0  0  0  0  0  0  0  0
    3.8308   -1.0327   -0.1916 C   0  0  0  0  0  0  0  0  0  0  0  0
    2.6588   -0.3434    0.0103 C   0  0  0  0  0  0  0  0  0  0  0  0
    1.3671   -0.9848   -0.2602 C   0  0  0  0  0  0  0  0  0  0  0  0
    0.2062   -0.3453   -0.0760 N   0  0  0  0  0  0  0  0  0  0  0  0
   -0.9698   -0.9701   -0.3366 C   0  0  0  0  0  0  0  0  0  0  0  0
   -2.2327   -0.2421   -0.1307 C   0  0  0  0  0  0  0  0  0  0  0  0
   -3.2611   -0.6997    0.6533 C   0  0  0  0  0  0  0  0  0  0  0  0
   -4.4346    0.0082    0.7986 C   0  0  0  0  0  0  0  0  0  0  0  0
   -4.6461    1.2022    0.1761 C   0  0  0  0  0  0  0  0  0  0  0  0
   -5.8465    1.9539    0.3076 N   0  0  0  0  0  0  0  0  0  0  0  0
   -5.9630    3.2227   -0.4021 C   0  0  0  0  0  0  0  0  0  0  0  0
   -6.9562    1.5429    1.0979 C   0  0  0  0  0  0  0  0  0  0  0  0
   -3.6151    1.6767   -0.6182 C   0  0  0  0  0  0  0  0  0  0  0  0
   -2.4360    0.9795   -0.7733 C   0  0  0  0  0  0  0  0  0  0  0  0
   -1.0300   -2.2653   -0.7963 C   0  0  0  0  0  0  0  0  0  0  0  0
   -2.2170   -2.9239   -1.0904 C   0  0  0  0  0  0  0  0  0  0  0  0
   -2.2170   -4.2333   -1.5678 C   0  0  0  0  0  0  0  0  0  0  0  0
   -0.9984   -4.8546   -1.7401 C   0  0  0  0  0  0  0  0  0  0  0  0
    0.1786   -4.1975   -1.4491 C   0  0  0  0  0  0  0  0  0  0  0  0
    0.1980   -2.9061   -0.9779 C   0  0  0  0  0  0  0  0  0  0  0  0
    1.3348   -2.2500   -0.7062 N   0  0  0  0  0  0  0  0  0  0  0  0
    2.7549    0.9462    0.4675 C   0  0  0  0  0  0  0  0  0  0  0  0
    3.9968    1.5166    0.7112 C   0  0  0  0  0  0  0  0  0  0  0  0
    6.3537    1.6819    2.8166 H   0  0  0  0  0  0  0  0  0  0  0  0
    8.0043    1.5725    2.1460 H   0  0  0  0  0  0  0  0  0  0  0  0
    6.9374    0.0771    2.3416 H   0  0  0  0  0  0  0  0  0  0  0  0
    8.2919    1.8880   -0.1948 H   0  0  0  0  0  0  0  0  0  0  0  0
    6.8591    1.6339   -1.2818 H   0  0  0  0  0  0  0  0  0  0  0  0
    7.0171    3.1348   -0.2477 H   0  0  0  0  0  0  0  0  0  0  0  0
    5.9677   -1.0607   -0.1275 H   0  0  0  0  0  0  0  0  0  0  0  0
    3.7678   -2.0569   -0.5541 H   0  0  0  0  0  0  0  0  0  0  0  0
   -3.1565   -1.6458    1.2002 H   0  0  0  0  0  0  0  0  0  0  0  0
   -5.2334   -0.4032    1.4415 H   0  0  0  0  0  0  0  0  0  0  0  0
   -7.0104    3.5828   -0.4327 H   0  0  0  0  0  0  0  0  0  0  0  0
   -5.6339    3.1489   -1.4564 H   0  0  0  0  0  0  0  0  0  0  0  0
   -5.4004    4.0167    0.1648 H   0  0  0  0  0  0  0  0  0  0  0  0
   -7.8936    1.9392    0.6237 H   0  0  0  0  0  0  0  0  0  0  0  0
   -7.0560    0.4783    1.2882 H   0  0  0  0  0  0  0  0  0  0  0  0
   -6.8697    2.0632    2.0927 H   0  0  0  0  0  0  0  0  0  0  0  0
   -3.6881    2.6228   -1.1572 H   0  0  0  0  0  0  0  0  0  0  0  0
   -1.6446    1.3824   -1.4065 H   0  0  0  0  0  0  0  0  0  0  0  0
   -3.1652   -2.4204   -0.9731 H   0  0  0  0  0  0  0  0  0  0  0  0
   -3.1347   -4.7566   -1.7994 H   0  0  0  0  0  0  0  0  0  0  0  0
   -0.9872   -5.8786   -2.1122 H   0  0  0  0  0  0  0  0  0  0  0  0
    1.1574   -4.6721   -1.5790 H   0  0  0  0  0  0  0  0  0  0  0  0
    1.8530    1.5091    0.6343 H   0  0  0  0  0  0  0  0  0  0  0  0
    4.0948    2.5437    1.0760 H   0  0  0  0  0  0  0  0  0  0  0  0
  1  2  1  0
  2  3  1  0
  2  4  1  0
  4  5  2  0
  5  6  1  0
  6  7  2  0
  7  8  1  0
  8  9  2  0
  9 10  1  0
 10 11  1  0
 11 12  2  0
 12 13  1  0
 13 14  2  0
 14 15  1  0
 15 16  1  0
 15 17  1  0
 14 18  1  0
 18 19  2  0
 10 20  2  0
 20 21  1  0
 21 22  2  0
 22 23  1  0
 23 24  2  0
 24 25  1  0
 25 26  2  0
  7 27  1  0
 27 28  2  0
 28  4  1  0
 26  8  1  0
 19 11  1  0
 25 20  1  0
  1 29  1  0
  1 30  1  0
  1 31  1  0
  3 32  1  0
  3 33  1  0
  3 34  1  0
  5 35  1  0
  6 36  1  0
 12 37  1  0
 13 38  1  0
 16 39  1  0
 16 40  1  0
 16 41  1  0
 17 42  1  0
 17 43  1  0
 17 44  1  0
 18 45  1  0
 19 46  1  0
 21 47  1  0
 22 48  1  0
 23 49  1  0
 24 50  1  0
 27 51  1  0
 28 52  1  0
M  END
