
     RDKit          3D

 52 55  0  0  0  0  0  0  0  0999 V2000
    3.5181    2.8170    1.3573 C   0  0  0  0  0  0  0  0  0  0  0  0
    2.0332    2.7311    1.6557 C   0  0  0  0  0  0  0  0  0  0  0  0
    1.4502    1.7329    0.8637 O   0  0  0  0  0  0  0  0  0  0  0  0
    0.0936    1.4034    0.8984 C   0  0  0  0  0  0  0  0  0  0  0  0
   -0.6175    2.0472    1.6883 O   0  0  0  0  0  0  0  0  0  0  0  0
   -0.4280    0.3635    0.0441 C   0  0  0  0  0  0  0  0  0  0  0  0
    0.3672   -0.3866   -0.8372 C   0  0  0  0  0  0  0  0  0  0  0  0
    1.7925   -0.2925   -1.0245 C   0  0  0  0  0  0  0  0  0  0  0  0
    2.6507   -0.5506    0.0174 C   0  0  0  0  0  0  0  0  0  0  0  0
    4.0344   -0.4766   -0.1481 C   0  0  0  0  0  0  0  0  0  0  0  0
    4.8971   -0.7331    0.8943 C   0  0  0  0  0  0  0  0  0  0  0  0
    6.2505   -0.6398    0.6592 C   0  0  0  0  0  0  0  0  0  0  0  0
    6.7259   -0.3009   -0.5798 C   0  0  0  0  0  0  0  0  0  0  0  0
    5.8332   -0.0521   -1.5961 C   0  0  0  0  0  0  0  0  0  0  0  0
    4.4537   -0.1312   -1.4173 C   0  0  0  0  0  0  0  0  0  0  0  0
    3.6071    0.1087   -2.3942 O   0  0  0  0  0  0  0  0  0  0  0  0
    2.3150    0.0405   -2.2414 C   0  0  0  0  0  0  0  0  0  0  0  0
    1.5644    0.2895   -3.2462 O   0  0  0  0  0  0  0  0  0  0  0  0
   -0.4839   -1.1910   -1.4646 N   0  0  0  0  0  0  0  0  0  0  0  0
   -1.7263   -1.0109   -1.0548 N   0  0  0  0  0  0  0  0  0  0  0  0
   -2.8938   -1.6984   -1.5158 C   0  0  0  0  0  0  0  0  0  0  0  0
   -3.8869   -1.1136   -2.2624 C   0  0  0  0  0  0  0  0  0  0  0  0
   -5.0007   -1.7914   -2.6990 C   0  0  0  0  0  0  0  0  0  0  0  0
   -5.1660   -3.1267   -2.3927 C   0  0  0  0  0  0  0  0  0  0  0  0
   -4.1845   -3.7357   -1.6455 C   0  0  0  0  0  0  0  0  0  0  0  0
   -4.4041   -5.4283   -1.2598 Cl  0  0  0  0  0  0  0  0  0  0  0  0
   -3.0693   -3.0405   -1.2133 C   0  0  0  0  0  0  0  0  0  0  0  0
   -1.7413   -0.0427   -0.1045 C   0  0  0  0  0  0  0  0  0  0  0  0
   -2.9209    0.4373    0.5928 C   0  0  0  0  0  0  0  0  0  0  0  0
   -4.0390   -0.0957    0.2802 O   0  0  0  0  0  0  0  0  0  0  0  0
   -2.9931    1.4004    1.5550 O   0  0  0  0  0  0  0  0  0  0  0  0
   -4.1775    1.8290    2.2019 C   0  0  0  0  0  0  0  0  0  0  0  0
   -4.8777    0.7431    2.9402 C   0  0  0  0  0  0  0  0  0  0  0  0
    4.0759    2.0626    1.9399 H   0  0  0  0  0  0  0  0  0  0  0  0
    3.6838    2.5594    0.2696 H   0  0  0  0  0  0  0  0  0  0  0  0
    3.9171    3.8368    1.4859 H   0  0  0  0  0  0  0  0  0  0  0  0
    1.5998    3.7176    1.3804 H   0  0  0  0  0  0  0  0  0  0  0  0
    1.8945    2.5888    2.7439 H   0  0  0  0  0  0  0  0  0  0  0  0
    2.3114   -0.8280    0.9999 H   0  0  0  0  0  0  0  0  0  0  0  0
    4.4848   -0.9976    1.8560 H   0  0  0  0  0  0  0  0  0  0  0  0
    6.9523   -0.8427    1.4819 H   0  0  0  0  0  0  0  0  0  0  0  0
    7.7832   -0.2294   -0.7597 H   0  0  0  0  0  0  0  0  0  0  0  0
    6.1584    0.2231   -2.6023 H   0  0  0  0  0  0  0  0  0  0  0  0
   -3.7933   -0.0726   -2.5223 H   0  0  0  0  0  0  0  0  0  0  0  0
   -5.7769   -1.3024   -3.2923 H   0  0  0  0  0  0  0  0  0  0  0  0
   -6.0357   -3.6837   -2.7270 H   0  0  0  0  0  0  0  0  0  0  0  0
   -2.2948   -3.5313   -0.6206 H   0  0  0  0  0  0  0  0  0  0  0  0
   -3.8649    2.6320    2.9039 H   0  0  0  0  0  0  0  0  0  0  0  0
   -4.8778    2.3218    1.4978 H   0  0  0  0  0  0  0  0  0  0  0  0
   -4.3081   -0.2204    2.8808 H   0  0  0  0  0  0  0  0  0  0  0  0
   -5.9037    0.6214    2.5067 H   0  0  0  0  0  0  0  0  0  0  0  0
   -4.9821    1.0391    4.0262 H   0  0  0  0  0  0  0  0  0  0  0  0
  1  2  1  0
  2  3  1  0
  3  4  1  0
  4  5  2  0
  4  6  1  0
  6  7  1  0
  7  8  1  0
  8  9  2  0
  9 10  1  0
 10 11  2  0
 11 12  1  0
 12 13  2  0
 13 14  1  0
 14 15  2  0
 15 16  1  0
 16 17  1  0
 17 18  2  0
  7 19  2  0
 19 20  1  0
 20 21  1  0
 21 22  2  0
 22 23  1  0
 23 24  2  0
 24 25  1  0
 25 26  1  0
 25 27  2  0
 20 28  1  0
 28 29  1  0
 29 30  2  0
 29 31  1  0
 31 32  1  0
 32 33  1  0
 28  6  2  0
 17  8  1  0
 27 21  1  0
 15 10  1  0
  1 34  1  0
  1 35  1  0
  1 36  1  0
  2 37  1  0
  2 38  1  0
  9 39  1  0
 11 40  1  0
 12 41  1  0
 13 42  1  0
 14 43  1  0
 22 44  1  0
 23 45  1  0
 24 46  1  0
 27 47  1  0
 32 48  1  0
 32 49  1  0
 33 50  1  0
 33 51  1  0
 33 52  1  0
M  END
