
     RDKit          3D

 72 78  0  0  0  0  0  0  0  0999 V2000
   10.7942    1.6504    0.6459 O   0  0  0  0  0  0  0  0  0  0  0  0
    9.5590    1.7302    0.4520 C   0  0  0  0  0  0  0  0  0  0  0  0
    8.7613    1.4822    1.5882 O   0  0  0  0  0  0  0  0  0  0  0  0
    8.9238    2.0548   -0.8366 C   0  0  0  0  0  0  0  0  0  0  0  0
    7.5208    2.0218   -0.7905 O   0  0  0  0  0  0  0  0  0  0  0  0
    6.8496    0.8715   -0.5058 C   0  0  0  0  0  0  0  0  0  0  0  0
    7.5301   -0.3025   -0.2780 C   0  0  0  0  0  0  0  0  0  0  0  0
    6.8164   -1.4721    0.0160 C   0  0  0  0  0  0  0  0  0  0  0  0
    5.4350   -1.4186    0.0700 C   0  0  0  0  0  0  0  0  0  0  0  0
    4.7890   -0.2232   -0.1654 C   0  0  0  0  0  0  0  0  0  0  0  0
    3.2968   -0.2851   -0.0689 C   0  0  0  0  0  0  0  0  0  0  0  0
    2.8217   -0.1543    1.2385 C   0  0  0  0  0  0  0  0  0  0  0  0
    1.4902   -0.1358    1.4620 N   0  0  0  0  0  0  0  0  0  0  0  0
    1.2324   -0.0081    2.7801 C   0  0  0  0  0  0  0  0  0  0  0  0
   -0.1131    0.0287    3.1737 C   0  0  0  0  0  0  0  0  0  0  0  0
   -1.2160   -0.3223    2.3828 C   0  0  0  0  0  0  0  0  0  0  0  0
   -2.2646   -1.0559    2.9874 C   0  0  0  0  0  0  0  0  0  0  0  0
   -3.1949   -1.2732    2.0227 C   0  0  0  0  0  0  0  0  0  0  0  0
   -2.6864   -0.6606    0.8440 C   0  0  0  0  0  0  0  0  0  0  0  0
   -1.4949   -0.0958    1.0898 N   0  0  0  0  0  0  0  0  0  0  0  0
   -3.4550   -0.7298   -0.3345 C   0  0  0  0  0  0  0  0  0  0  0  0
   -4.9145   -0.4364   -0.2582 C   0  0  0  0  0  0  0  0  0  0  0  0
   -5.8267   -1.4581   -0.3044 C   0  0  0  0  0  0  0  0  0  0  0  0
   -7.1682   -1.1618   -0.1993 C   0  0  0  0  0  0  0  0  0  0  0  0
   -7.5975    0.1617   -0.0469 C   0  0  0  0  0  0  0  0  0  0  0  0
   -6.6505    1.1623   -0.0038 C   0  0  0  0  0  0  0  0  0  0  0  0
   -6.9818    2.4993    0.1488 O   0  0  0  0  0  0  0  0  0  0  0  0
   -8.2853    2.9744    0.2930 C   0  0  0  0  0  0  0  0  0  0  0  0
   -8.9686    2.4573    1.4956 C   0  0  0  0  0  0  0  0  0  0  0  0
  -10.1650    2.8125    1.7300 O   0  0  0  0  0  0  0  0  0  0  0  0
   -8.3906    1.5977    2.4049 O   0  0  0  0  0  0  0  0  0  0  0  0
   -5.2935    0.8666   -0.1107 C   0  0  0  0  0  0  0  0  0  0  0  0
   -2.9635   -1.0989   -1.6090 C   0  0  0  0  0  0  0  0  0  0  0  0
   -1.6497   -0.9953   -1.8296 N   0  0  0  0  0  0  0  0  0  0  0  0
   -1.3750   -1.3938   -3.0781 C   0  0  0  0  0  0  0  0  0  0  0  0
   -0.0305   -1.3680   -3.5177 C   0  0  0  0  0  0  0  0  0  0  0  0
    1.0592   -0.9200   -2.7359 C   0  0  0  0  0  0  0  0  0  0  0  0
    1.9775   -0.0386   -3.3478 C   0  0  0  0  0  0  0  0  0  0  0  0
    2.9001    0.2638   -2.3890 C   0  0  0  0  0  0  0  0  0  0  0  0
    2.5105   -0.4449   -1.2301 C   0  0  0  0  0  0  0  0  0  0  0  0
    1.3978   -1.1567   -1.4611 N   0  0  0  0  0  0  0  0  0  0  0  0
   -2.6038   -1.7906   -3.7315 C   0  0  0  0  0  0  0  0  0  0  0  0
   -3.5554   -1.6082   -2.8358 C   0  0  0  0  0  0  0  0  0  0  0  0
    2.5261    0.0575    3.4253 C   0  0  0  0  0  0  0  0  0  0  0  0
    3.5023   -0.0293    2.5134 C   0  0  0  0  0  0  0  0  0  0  0  0
    5.4599    0.9230   -0.4515 C   0  0  0  0  0  0  0  0  0  0  0  0
    9.1243    0.9996    2.3770 H   0  0  0  0  0  0  0  0  0  0  0  0
    9.2897    3.0570   -1.1969 H   0  0  0  0  0  0  0  0  0  0  0  0
    9.2203    1.2712   -1.5882 H   0  0  0  0  0  0  0  0  0  0  0  0
    8.5872   -0.3896   -0.3232 H   0  0  0  0  0  0  0  0  0  0  0  0
    7.3350   -2.4029    0.1999 H   0  0  0  0  0  0  0  0  0  0  0  0
    4.9037   -2.3287    0.2982 H   0  0  0  0  0  0  0  0  0  0  0  0
   -0.2551    0.3634    4.2186 H   0  0  0  0  0  0  0  0  0  0  0  0
   -2.3451   -1.3995    4.0394 H   0  0  0  0  0  0  0  0  0  0  0  0
   -4.1195   -1.8089    2.1919 H   0  0  0  0  0  0  0  0  0  0  0  0
   -0.8639    0.4751    0.3621 H   0  0  0  0  0  0  0  0  0  0  0  0
   -5.4970   -2.5139   -0.4285 H   0  0  0  0  0  0  0  0  0  0  0  0
   -7.8957   -1.9882   -0.2391 H   0  0  0  0  0  0  0  0  0  0  0  0
   -8.6610    0.3700    0.0243 H   0  0  0  0  0  0  0  0  0  0  0  0
   -8.8864    2.6615   -0.6028 H   0  0  0  0  0  0  0  0  0  0  0  0
   -8.2880    4.1050    0.2794 H   0  0  0  0  0  0  0  0  0  0  0  0
   -8.9439    1.0987    3.1108 H   0  0  0  0  0  0  0  0  0  0  0  0
   -4.5554    1.6952   -0.0735 H   0  0  0  0  0  0  0  0  0  0  0  0
    0.1025   -1.7147   -4.5517 H   0  0  0  0  0  0  0  0  0  0  0  0
    1.9864    0.3413   -4.3863 H   0  0  0  0  0  0  0  0  0  0  0  0
    3.7699    0.9310   -2.5270 H   0  0  0  0  0  0  0  0  0  0  0  0
    0.8767   -1.8321   -0.7441 H   0  0  0  0  0  0  0  0  0  0  0  0
   -2.7185   -2.1607   -4.7417 H   0  0  0  0  0  0  0  0  0  0  0  0
   -4.6359   -1.7910   -2.9379 H   0  0  0  0  0  0  0  0  0  0  0  0
    2.6616    0.1649    4.5080 H   0  0  0  0  0  0  0  0  0  0  0  0
    4.5645   -0.0123    2.7149 H   0  0  0  0  0  0  0  0  0  0  0  0
    4.9351    1.8242   -0.6277 H   0  0  0  0  0  0  0  0  0  0  0  0
  1  2  2  0
  2  3  1  0
  2  4  1  0
  4  5  1  0
  5  6  1  0
  6  7  2  0
  7  8  1  0
  8  9  2  0
  9 10  1  0
 10 11  1  0
 11 12  1  0
 12 13  2  0
 13 14  1  0
 14 15  2  0
 15 16  1  0
 16 17  2  0
 17 18  1  0
 18 19  2  0
 19 20  1  0
 19 21  1  0
 21 22  1  0
 22 23  2  0
 23 24  1  0
 24 25  2  0
 25 26  1  0
 26 27  1  0
 27 28  1  0
 28 29  1  0
 29 30  2  0
 29 31  1  0
 26 32  2  0
 21 33  2  0
 33 34  1  0
 34 35  2  0
 35 36  1  0
 36 37  2  0
 37 38  1  0
 38 39  2  0
 39 40  1  0
 40 41  1  0
 35 42  1  0
 42 43  2  0
 14 44  1  0
 44 45  2  0
 10 46  2  0
 46  6  1  0
 40 11  2  0
 45 12  1  0
 20 16  1  0
 32 22  1  0
 43 33  1  0
 41 37  1  0
  3 47  1  0
  4 48  1  0
  4 49  1  0
  7 50  1  0
  8 51  1  0
  9 52  1  0
 15 53  1  0
 17 54  1  0
 18 55  1  0
 20 56  1  0
 23 57  1  0
 24 58  1  0
 25 59  1  0
 28 60  1  0
 28 61  1  0
 31 62  1  0
 32 63  1  0
 36 64  1  0
 38 65  1  0
 39 66  1  0
 41 67  1  0
 42 68  1  0
 43 69  1  0
 44 70  1  0
 45 71  1  0
 46 72  1  0
M  END
