
     RDKit          3D

 29 31  0  0  0  0  0  0  0  0999 V2000
   -0.3910    2.3690   -1.0288 O   0  0  0  0  0  0  0  0  0  0  0  0
    0.4964    1.5435   -0.7007 C   0  0  0  0  0  0  0  0  0  0  0  0
    1.7522    1.8441   -0.8794 O   0  0  0  0  0  0  0  0  0  0  0  0
    2.7427    1.0199   -0.5558 C   0  0  0  0  0  0  0  0  0  0  0  0
    4.0630    1.3903   -0.7676 C   0  0  0  0  0  0  0  0  0  0  0  0
    5.0439    0.4878   -0.4093 C   0  0  0  0  0  0  0  0  0  0  0  0
    4.7014   -0.7230    0.1336 C   0  0  0  0  0  0  0  0  0  0  0  0
    3.3865   -1.0837    0.3409 C   0  0  0  0  0  0  0  0  0  0  0  0
    2.3783   -0.1868   -0.0138 C   0  0  0  0  0  0  0  0  0  0  0  0
    1.0552   -0.5543    0.1967 C   0  0  0  0  0  0  0  0  0  0  0  0
    0.0891    0.3436   -0.1601 C   0  0  0  0  0  0  0  0  0  0  0  0
   -1.3462    0.0532    0.0209 C   0  0  0  0  0  0  0  0  0  0  0  0
   -1.8958   -1.1626   -0.3299 C   0  0  0  0  0  0  0  0  0  0  0  0
   -3.2421   -1.4187   -0.1539 C   0  0  0  0  0  0  0  0  0  0  0  0
   -4.0950   -0.4770    0.3776 C   0  0  0  0  0  0  0  0  0  0  0  0
   -5.4757   -0.7711    0.5461 N   0  0  0  0  0  4  0  0  0  0  0  0
   -5.9336   -1.8797    0.2175 O   0  0  0  0  0  0  0  0  0  0  0  0
   -6.3503    0.1449    1.0721 O   0  0  0  0  0  1  0  0  0  0  0  0
   -3.5506    0.7394    0.7297 C   0  0  0  0  0  0  0  0  0  0  0  0
   -2.2040    0.9930    0.5527 C   0  0  0  0  0  0  0  0  0  0  0  0
    4.3029    2.3533   -1.1982 H   0  0  0  0  0  0  0  0  0  0  0  0
    6.0663    0.7996   -0.5842 H   0  0  0  0  0  0  0  0  0  0  0  0
    5.4946   -1.4240    0.4107 H   0  0  0  0  0  0  0  0  0  0  0  0
    3.0788   -2.0259    0.7650 H   0  0  0  0  0  0  0  0  0  0  0  0
    0.7883   -1.4948    0.6185 H   0  0  0  0  0  0  0  0  0  0  0  0
   -1.2516   -1.9216   -0.7495 H   0  0  0  0  0  0  0  0  0  0  0  0
   -3.6690   -2.3873   -0.4356 H   0  0  0  0  0  0  0  0  0  0  0  0
   -4.2395    1.4709    1.1479 H   0  0  0  0  0  0  0  0  0  0  0  0
   -1.7951    1.9578    0.8366 H   0  0  0  0  0  0  0  0  0  0  0  0
  1  2  2  0
  2  3  1  0
  3  4  1  0
  4  5  2  0
  5  6  1  0
  6  7  2  0
  7  8  1  0
  8  9  2  0
  9 10  1  0
 10 11  2  0
 11 12  1  0
 12 13  2  0
 13 14  1  0
 14 15  2  0
 15 16  1  0
 16 17  2  0
 16 18  1  0
 15 19  1  0
 19 20  2  0
 11  2  1  0
 20 12  1  0
  9  4  1  0
  5 21  1  0
  6 22  1  0
  7 23  1  0
  8 24  1  0
 10 25  1  0
 13 26  1  0
 14 27  1  0
 19 28  1  0
 20 29  1  0
M  CHG  2  16   1  18  -1
M  END
