
     RDKit          3D

 48 51  0  0  0  0  0  0  0  0999 V2000
   -4.9562   -5.3675    0.5074 C   0  0  0  0  0  0  0  0  0  0  0  0
   -4.9091   -4.1204   -0.3192 C   0  0  0  0  0  0  0  0  0  0  0  0
   -4.5380   -2.9399    0.4516 N   0  0  0  0  0  0  0  0  0  0  0  0
   -5.4340   -2.3944    1.4457 C   0  0  0  0  0  0  0  0  0  0  0  0
   -6.6488   -1.7459    0.7960 C   0  0  0  0  0  0  0  0  0  0  0  0
   -3.2843   -2.3457    0.2215 C   0  0  0  0  0  0  0  0  0  0  0  0
   -3.0693   -1.0543    0.7246 C   0  0  0  0  0  0  0  0  0  0  0  0
   -1.8432   -0.4762    0.5122 C   0  0  0  0  0  0  0  0  0  0  0  0
   -0.8323   -1.0870   -0.1580 C   0  0  0  0  0  0  0  0  0  0  0  0
    0.4335   -0.3771   -0.3385 C   0  0  0  0  0  0  0  0  0  0  0  0
    1.5517   -0.7952   -1.0089 C   0  0  0  0  0  0  0  0  0  0  0  0
    2.5939    0.0361   -1.0551 C   0  0  0  0  0  0  0  0  0  0  0  0
    2.4643    1.2458   -0.4269 C   0  0  0  0  0  0  0  0  0  0  0  0
    3.4652    2.3357   -0.3478 C   0  0  0  0  0  0  0  0  0  0  0  0
    3.1962    3.4505    0.3340 N   0  0  0  0  0  0  0  0  0  0  0  0
    4.0311    4.4981    0.4550 C   0  0  0  0  0  0  0  0  0  0  0  0
    3.7331    5.6723    1.1883 C   0  0  0  0  0  0  0  0  0  0  0  0
    3.4790    6.6404    1.8162 N   0  0  0  0  0  0  0  0  0  0  0  0
    5.2570    4.3942   -0.1830 C   0  0  0  0  0  0  0  0  0  0  0  0
    6.1533    5.4433   -0.0932 C   0  0  0  0  0  0  0  0  0  0  0  0
    7.3637    5.2981   -0.7460 C   0  0  0  0  0  0  0  0  0  0  0  0
    7.6863    4.1689   -1.4604 C   0  0  0  0  0  0  0  0  0  0  0  0
    6.7543    3.1603   -1.5132 C   0  0  0  0  0  0  0  0  0  0  0  0
    5.5302    3.2464   -0.8832 C   0  0  0  0  0  0  0  0  0  0  0  0
    4.6365    2.2197   -0.9649 N   0  0  0  0  0  0  0  0  0  0  0  0
    0.8826    1.1755    0.2084 S   0  0  0  0  0  0  0  0  0  0  0  0
   -1.0218   -2.3494   -0.6578 C   0  0  0  0  0  0  0  0  0  0  0  0
   -2.2439   -2.9488   -0.4557 C   0  0  0  0  0  0  0  0  0  0  0  0
   -5.4106   -6.1615   -0.1352 H   0  0  0  0  0  0  0  0  0  0  0  0
   -5.6630   -5.2561    1.3613 H   0  0  0  0  0  0  0  0  0  0  0  0
   -3.9703   -5.7245    0.8190 H   0  0  0  0  0  0  0  0  0  0  0  0
   -5.9444   -3.9353   -0.7127 H   0  0  0  0  0  0  0  0  0  0  0  0
   -4.2700   -4.2752   -1.1918 H   0  0  0  0  0  0  0  0  0  0  0  0
   -4.9795   -1.7261    2.1767 H   0  0  0  0  0  0  0  0  0  0  0  0
   -5.8854   -3.2313    2.0613 H   0  0  0  0  0  0  0  0  0  0  0  0
   -6.4521   -0.6544    0.6425 H   0  0  0  0  0  0  0  0  0  0  0  0
   -7.5692   -1.8434    1.3997 H   0  0  0  0  0  0  0  0  0  0  0  0
   -6.8216   -2.1586   -0.2229 H   0  0  0  0  0  0  0  0  0  0  0  0
   -3.8533   -0.5108    1.2613 H   0  0  0  0  0  0  0  0  0  0  0  0
   -1.7371    0.5401    0.9327 H   0  0  0  0  0  0  0  0  0  0  0  0
    1.5530   -1.7967   -1.4839 H   0  0  0  0  0  0  0  0  0  0  0  0
    3.5536   -0.1928   -1.5691 H   0  0  0  0  0  0  0  0  0  0  0  0
    5.8964    6.3278    0.4685 H   0  0  0  0  0  0  0  0  0  0  0  0
    8.1050    6.0793   -0.7151 H   0  0  0  0  0  0  0  0  0  0  0  0
    8.6150    4.0529   -1.9640 H   0  0  0  0  0  0  0  0  0  0  0  0
    6.9987    2.2696   -2.0712 H   0  0  0  0  0  0  0  0  0  0  0  0
   -0.2000   -2.8238   -1.1922 H   0  0  0  0  0  0  0  0  0  0  0  0
   -2.3963   -3.9627   -0.8453 H   0  0  0  0  0  0  0  0  0  0  0  0
  1  2  1  0
  2  3  1  0
  3  4  1  0
  4  5  1  0
  3  6  1  0
  6  7  2  0
  7  8  1  0
  8  9  2  0
  9 10  1  0
 10 11  2  0
 11 12  1  0
 12 13  2  0
 13 14  1  0
 14 15  2  0
 15 16  1  0
 16 17  1  0
 17 18  3  0
 16 19  2  0
 19 20  1  0
 20 21  2  0
 21 22  1  0
 22 23  2  0
 23 24  1  0
 24 25  2  0
 13 26  1  0
  9 27  1  0
 27 28  2  0
 28  6  1  0
 26 10  1  0
 25 14  1  0
 24 19  1  0
  1 29  1  0
  1 30  1  0
  1 31  1  0
  2 32  1  0
  2 33  1  0
  4 34  1  0
  4 35  1  0
  5 36  1  0
  5 37  1  0
  5 38  1  0
  7 39  1  0
  8 40  1  0
 11 41  1  0
 12 42  1  0
 20 43  1  0
 21 44  1  0
 22 45  1  0
 23 46  1  0
 27 47  1  0
 28 48  1  0
M  END
