
     RDKit          3D

 46 50  0  0  0  0  0  0  0  0999 V2000
   -2.6241    5.7601   -3.8442 N   0  0  0  0  0  0  0  0  0  0  0  0
   -1.8824    5.0290   -3.3618 C   0  0  0  0  0  0  0  0  0  0  0  0
   -0.7498    3.9033   -2.6260 S   0  0  0  0  0  0  0  0  0  0  0  0
   -1.6460    2.5998   -1.7828 C   0  0  0  0  0  0  0  0  0  0  0  0
   -2.9909    2.4805   -1.7189 C   0  0  0  0  0  0  0  0  0  0  0  0
   -3.2802    1.3582   -0.9857 C   0  0  0  0  0  0  0  0  0  0  0  0
   -2.0595    0.7941   -0.6021 C   0  0  0  0  0  0  0  0  0  0  0  0
   -1.0942    1.5695   -1.1008 N   0  0  0  0  0  0  0  0  0  0  0  0
    0.3896    1.2977   -0.9066 B   0  0  0  0  0  4  0  0  0  0  0  0
    1.0359    2.4361   -0.2674 F   0  0  0  0  0  0  0  0  0  0  0  0
    1.0121    1.1884   -2.2345 F   0  0  0  0  0  0  0  0  0  0  0  0
    0.6285    0.0494   -0.1010 N   0  0  0  0  0  4  0  0  0  0  0  0
    1.7610   -0.5151    0.2719 C   0  0  0  0  0  0  0  0  0  0  0  0
    3.0855   -0.0977    0.0134 N   0  0  0  0  0  0  0  0  0  0  0  0
    3.6725    0.9794    0.7345 C   0  0  0  0  0  0  0  0  0  0  0  0
    5.1382    0.7912    1.0235 C   0  0  0  0  0  0  0  0  0  0  0  0
    5.7901   -0.0487    0.1807 O   0  0  0  0  0  0  0  0  0  0  0  0
    5.1510   -1.1838   -0.2216 C   0  0  0  0  0  0  0  0  0  0  0  0
    3.8888   -0.7616   -0.9926 C   0  0  0  0  0  0  0  0  0  0  0  0
    1.4347   -1.7015    1.0386 C   0  0  0  0  0  0  0  0  0  0  0  0
    0.1315   -1.8577    1.1316 C   0  0  0  0  0  0  0  0  0  0  0  0
   -0.4584   -0.7206    0.3902 C   0  0  0  0  0  0  0  0  0  0  0  0
   -1.7127   -0.3859    0.1669 C   0  0  0  0  0  0  0  0  0  0  0  0
   -2.7710   -1.2309    0.6814 C   0  0  0  0  0  0  0  0  0  0  0  0
   -3.7877   -0.5637    1.3669 C   0  0  0  0  0  0  0  0  0  0  0  0
   -4.8417   -1.2758    1.8710 C   0  0  0  0  0  0  0  0  0  0  0  0
   -4.9220   -2.6408    1.7165 C   0  0  0  0  0  0  0  0  0  0  0  0
   -3.9130   -3.2685    1.0413 C   0  0  0  0  0  0  0  0  0  0  0  0
   -2.8331   -2.5935    0.5167 C   0  0  0  0  0  0  0  0  0  0  0  0
   -3.7035    3.1542   -2.1676 H   0  0  0  0  0  0  0  0  0  0  0  0
   -4.2684    0.9737   -0.7496 H   0  0  0  0  0  0  0  0  0  0  0  0
    3.1247    1.2896    1.6441 H   0  0  0  0  0  0  0  0  0  0  0  0
    3.6335    1.8842    0.0551 H   0  0  0  0  0  0  0  0  0  0  0  0
    5.6816    1.7817    1.0027 H   0  0  0  0  0  0  0  0  0  0  0  0
    5.2335    0.4261    2.0652 H   0  0  0  0  0  0  0  0  0  0  0  0
    5.8310   -1.7730   -0.8503 H   0  0  0  0  0  0  0  0  0  0  0  0
    4.8258   -1.7397    0.6933 H   0  0  0  0  0  0  0  0  0  0  0  0
    3.3911   -1.6146   -1.4584 H   0  0  0  0  0  0  0  0  0  0  0  0
    4.1935    0.0253   -1.7137 H   0  0  0  0  0  0  0  0  0  0  0  0
    2.1293   -2.4092    1.5009 H   0  0  0  0  0  0  0  0  0  0  0  0
   -0.4502   -2.6169    1.6266 H   0  0  0  0  0  0  0  0  0  0  0  0
   -3.7660    0.5178    1.5204 H   0  0  0  0  0  0  0  0  0  0  0  0
   -5.6168   -0.7074    2.4036 H   0  0  0  0  0  0  0  0  0  0  0  0
   -5.7739   -3.1518    2.1332 H   0  0  0  0  0  0  0  0  0  0  0  0
   -3.9545   -4.3360    0.9073 H   0  0  0  0  0  0  0  0  0  0  0  0
   -2.0635   -3.0946   -0.0122 H   0  0  0  0  0  0  0  0  0  0  0  0
  1  2  3  0
  2  3  1  0
  3  4  1  0
  4  5  2  0
  5  6  1  0
  6  7  2  0
  7  8  1  0
  8  9  1  0
  9 10  1  0
  9 11  1  0
  9 12  1  0
 12 13  2  0
 13 14  1  0
 14 15  1  0
 15 16  1  0
 16 17  1  0
 17 18  1  0
 18 19  1  0
 13 20  1  0
 20 21  2  0
 21 22  1  0
 22 23  2  0
 23 24  1  0
 24 25  2  0
 25 26  1  0
 26 27  2  0
 27 28  1  0
 28 29  2  0
  8  4  1  0
 22 12  1  0
 29 24  1  0
 23  7  1  0
 19 14  1  0
  5 30  1  0
  6 31  1  0
 15 32  1  0
 15 33  1  0
 16 34  1  0
 16 35  1  0
 18 36  1  0
 18 37  1  0
 19 38  1  0
 19 39  1  0
 20 40  1  0
 21 41  1  0
 25 42  1  0
 26 43  1  0
 27 44  1  0
 28 45  1  0
 29 46  1  0
M  CHG  2   9  -1  12   1
M  END
