
     RDKit          3D

 34 36  0  0  0  0  0  0  0  0999 V2000
   -4.6712    0.8453   -0.6971 C   0  0  0  0  0  0  0  0  0  0  0  0
   -3.3355    0.3072   -0.2959 C   0  0  0  0  0  0  0  0  0  0  0  0
   -3.2030   -0.8261    0.4824 C   0  0  0  0  0  0  0  0  0  0  0  0
   -1.9583   -1.3098    0.8441 C   0  0  0  0  0  0  0  0  0  0  0  0
   -1.8159   -2.5197    1.6751 C   0  0  0  0  0  0  0  0  0  0  0  0
   -0.7942   -0.6631    0.4308 C   0  0  0  0  0  0  0  0  0  0  0  0
    0.3981   -1.1654    0.8040 N   0  0  0  0  0  0  0  0  0  0  0  0
    1.5116   -0.5268    0.3949 C   0  0  0  0  0  0  0  0  0  0  0  0
    2.7797   -0.9556    0.7197 C   0  0  0  0  0  0  0  0  0  0  0  0
    2.9351   -1.9928    1.4329 O   0  0  0  0  0  0  0  0  0  0  0  0
    3.8243   -0.2371    0.2543 N   0  0  0  0  0  0  0  0  0  0  0  0
    5.1689   -0.6656    0.5808 C   0  0  0  0  0  0  0  0  0  0  0  0
    3.6691    0.8643   -0.5027 C   0  0  0  0  0  0  0  0  0  0  0  0
    4.7143    1.4804   -0.8981 O   0  0  0  0  0  0  0  0  0  0  0  0
    2.4572    1.3429   -0.8602 N   0  0  0  0  0  0  0  0  0  0  0  0
    1.3724    0.6705   -0.4274 C   0  0  0  0  0  0  0  0  0  0  0  0
    0.1749    1.1536   -0.7875 N   0  0  0  0  0  0  0  0  0  0  0  0
    0.0006    2.3303   -1.5965 C   0  0  0  0  0  0  0  0  0  0  0  0
   -0.9130    0.4758   -0.3510 C   0  0  0  0  0  0  0  0  0  0  0  0
   -2.1817    0.9318   -0.6944 C   0  0  0  0  0  0  0  0  0  0  0  0
   -4.7044    1.0944   -1.7732 H   0  0  0  0  0  0  0  0  0  0  0  0
   -4.8439    1.8033   -0.1293 H   0  0  0  0  0  0  0  0  0  0  0  0
   -5.4652    0.1531   -0.3731 H   0  0  0  0  0  0  0  0  0  0  0  0
   -4.1002   -1.3604    0.8255 H   0  0  0  0  0  0  0  0  0  0  0  0
   -1.3513   -3.3695    1.1203 H   0  0  0  0  0  0  0  0  0  0  0  0
   -2.8292   -2.8674    1.9656 H   0  0  0  0  0  0  0  0  0  0  0  0
   -1.2407   -2.3377    2.6053 H   0  0  0  0  0  0  0  0  0  0  0  0
    5.5893   -1.3740   -0.1573 H   0  0  0  0  0  0  0  0  0  0  0  0
    5.2075   -1.1572    1.5783 H   0  0  0  0  0  0  0  0  0  0  0  0
    5.8350    0.2344    0.6615 H   0  0  0  0  0  0  0  0  0  0  0  0
   -0.6016    2.0456   -2.4813 H   0  0  0  0  0  0  0  0  0  0  0  0
   -0.3988    3.1971   -1.0456 H   0  0  0  0  0  0  0  0  0  0  0  0
    1.0182    2.5848   -2.0058 H   0  0  0  0  0  0  0  0  0  0  0  0
   -2.2480    1.8136   -1.2991 H   0  0  0  0  0  0  0  0  0  0  0  0
  1  2  1  0
  2  3  2  0
  3  4  1  0
  4  5  1  0
  4  6  2  0
  6  7  1  0
  7  8  2  0
  8  9  1  0
  9 10  2  0
  9 11  1  0
 11 12  1  0
 11 13  1  0
 13 14  2  0
 13 15  1  0
 15 16  2  0
 16 17  1  0
 17 18  1  0
 17 19  1  0
 19 20  2  0
 20  2  1  0
 19  6  1  0
 16  8  1  0
  1 21  1  0
  1 22  1  0
  1 23  1  0
  3 24  1  0
  5 25  1  0
  5 26  1  0
  5 27  1  0
 12 28  1  0
 12 29  1  0
 12 30  1  0
 18 31  1  0
 18 32  1  0
 18 33  1  0
 20 34  1  0
M  END
