
     RDKit          3D

 63 69  0  0  0  0  0  0  0  0999 V2000
    6.1109   -1.5917    1.7795 C   0  0  0  0  0  0  0  0  0  0  0  0
    5.7499   -0.0994    1.7737 C   0  0  0  0  0  0  0  0  0  0  0  0
    4.7161    0.0893    2.8288 C   0  0  0  0  0  0  0  0  0  0  0  0
    7.0364    0.6188    2.1122 C   0  0  0  0  0  0  0  0  0  0  0  0
    5.3342    0.2942    0.4093 C   0  0  0  0  0  0  0  0  0  0  0  0
    6.3084    0.7015   -0.5042 C   0  0  0  0  0  0  0  0  0  0  0  0
    5.9810    1.0749   -1.7969 C   0  0  0  0  0  0  0  0  0  0  0  0
    4.6779    1.0632   -2.2451 C   0  0  0  0  0  0  0  0  0  0  0  0
    4.0986    1.3581   -3.3831 O   0  0  0  0  0  0  0  0  0  0  0  0
    2.7963    1.1890   -3.3348 C   0  0  0  0  0  0  0  0  0  0  0  0
    1.7803    1.3515   -4.2155 N   0  0  0  0  0  0  0  0  0  0  0  0
    0.4908    1.0940   -3.8822 C   0  0  0  0  0  0  0  0  0  0  0  0
   -0.6549    1.1575   -4.4962 O   0  0  0  0  0  0  0  0  0  0  0  0
   -1.6436    0.7948   -3.7179 C   0  0  0  0  0  0  0  0  0  0  0  0
   -3.0117    0.6796   -3.8450 C   0  0  0  0  0  0  0  0  0  0  0  0
   -3.7802    0.2545   -2.7849 C   0  0  0  0  0  0  0  0  0  0  0  0
   -3.2640   -0.0815   -1.5366 C   0  0  0  0  0  0  0  0  0  0  0  0
   -4.0677   -0.3639   -0.4113 N   0  0  0  0  0  0  0  0  0  0  0  0
   -3.9971   -1.5531    0.3488 C   0  0  0  0  0  0  0  0  0  0  0  0
   -5.2487   -2.1159    0.6664 C   0  0  0  0  0  0  0  0  0  0  0  0
   -5.3497   -3.2696    1.3973 C   0  0  0  0  0  0  0  0  0  0  0  0
   -4.2421   -3.9284    1.8533 C   0  0  0  0  0  0  0  0  0  0  0  0
   -3.0018   -3.3920    1.5519 C   0  0  0  0  0  0  0  0  0  0  0  0
   -2.9096   -2.2038    0.7988 C   0  0  0  0  0  0  0  0  0  0  0  0
   -4.9086    0.6479    0.1419 C   0  0  0  0  0  0  0  0  0  0  0  0
   -5.6813    1.4814   -0.5796 C   0  0  0  0  0  0  0  0  0  0  0  0
   -6.5012    2.4590    0.0269 C   0  0  0  0  0  0  0  0  0  0  0  0
   -6.5248    2.5798    1.3928 C   0  0  0  0  0  0  0  0  0  0  0  0
   -5.7417    1.7362    2.1467 C   0  0  0  0  0  0  0  0  0  0  0  0
   -4.9579    0.7991    1.5402 C   0  0  0  0  0  0  0  0  0  0  0  0
   -1.8741    0.0376   -1.4184 C   0  0  0  0  0  0  0  0  0  0  0  0
   -1.1330    0.4597   -2.4866 C   0  0  0  0  0  0  0  0  0  0  0  0
    0.2302    0.6576   -2.6129 C   0  0  0  0  0  0  0  0  0  0  0  0
    1.2432    0.4830   -1.6959 C   0  0  0  0  0  0  0  0  0  0  0  0
    2.5283    0.7478   -2.0528 C   0  0  0  0  0  0  0  0  0  0  0  0
    3.7142    0.6629   -1.3485 C   0  0  0  0  0  0  0  0  0  0  0  0
    4.0399    0.2871   -0.0487 C   0  0  0  0  0  0  0  0  0  0  0  0
    6.7278   -1.8198    2.6523 H   0  0  0  0  0  0  0  0  0  0  0  0
    6.5811   -1.8253    0.8068 H   0  0  0  0  0  0  0  0  0  0  0  0
    5.1734   -2.1840    1.8797 H   0  0  0  0  0  0  0  0  0  0  0  0
    4.6599    1.1157    3.2518 H   0  0  0  0  0  0  0  0  0  0  0  0
    5.0282   -0.5819    3.6871 H   0  0  0  0  0  0  0  0  0  0  0  0
    3.7494   -0.3107    2.5100 H   0  0  0  0  0  0  0  0  0  0  0  0
    7.1648    0.4952    3.2293 H   0  0  0  0  0  0  0  0  0  0  0  0
    7.8757    0.0839    1.6722 H   0  0  0  0  0  0  0  0  0  0  0  0
    6.9895    1.6981    1.9286 H   0  0  0  0  0  0  0  0  0  0  0  0
    7.3361    0.7212   -0.1813 H   0  0  0  0  0  0  0  0  0  0  0  0
    6.7598    1.3939   -2.5077 H   0  0  0  0  0  0  0  0  0  0  0  0
   -3.4842    0.9249   -4.7865 H   0  0  0  0  0  0  0  0  0  0  0  0
   -4.8606    0.1056   -2.9219 H   0  0  0  0  0  0  0  0  0  0  0  0
   -6.1243   -1.6063    0.3128 H   0  0  0  0  0  0  0  0  0  0  0  0
   -6.3263   -3.6978    1.6384 H   0  0  0  0  0  0  0  0  0  0  0  0
   -4.3601   -4.8321    2.4253 H   0  0  0  0  0  0  0  0  0  0  0  0
   -2.1105   -3.8750    1.8870 H   0  0  0  0  0  0  0  0  0  0  0  0
   -1.9248   -1.8617    0.6128 H   0  0  0  0  0  0  0  0  0  0  0  0
   -5.7298    1.4769   -1.6476 H   0  0  0  0  0  0  0  0  0  0  0  0
   -7.1065    3.1121   -0.5720 H   0  0  0  0  0  0  0  0  0  0  0  0
   -7.1622    3.3410    1.8324 H   0  0  0  0  0  0  0  0  0  0  0  0
   -5.7901    1.8652    3.2320 H   0  0  0  0  0  0  0  0  0  0  0  0
   -4.3410    0.1343    2.1508 H   0  0  0  0  0  0  0  0  0  0  0  0
   -1.3690   -0.1620   -0.5062 H   0  0  0  0  0  0  0  0  0  0  0  0
    1.0511    0.1394   -0.6929 H   0  0  0  0  0  0  0  0  0  0  0  0
    3.2497   -0.0115    0.5900 H   0  0  0  0  0  0  0  0  0  0  0  0
  1  2  1  0
  2  3  1  0
  2  4  1  0
  2  5  1  0
  5  6  2  0
  6  7  1  0
  7  8  2  0
  8  9  1  0
  9 10  1  0
 10 11  2  0
 11 12  1  0
 12 13  1  0
 13 14  1  0
 14 15  2  0
 15 16  1  0
 16 17  2  0
 17 18  1  0
 18 19  1  0
 19 20  2  0
 20 21  1  0
 21 22  2  0
 22 23  1  0
 23 24  2  0
 18 25  1  0
 25 26  2  0
 26 27  1  0
 27 28  2  0
 28 29  1  0
 29 30  2  0
 17 31  1  0
 31 32  2  0
 32 33  1  0
 33 34  1  0
 34 35  2  0
 35 36  1  0
 36 37  2  0
 37  5  1  0
 36  8  1  0
 35 10  1  0
 33 12  2  0
 32 14  1  0
 24 19  1  0
 30 25  1  0
  1 38  1  0
  1 39  1  0
  1 40  1  0
  3 41  1  0
  3 42  1  0
  3 43  1  0
  4 44  1  0
  4 45  1  0
  4 46  1  0
  6 47  1  0
  7 48  1  0
 15 49  1  0
 16 50  1  0
 20 51  1  0
 21 52  1  0
 22 53  1  0
 23 54  1  0
 24 55  1  0
 26 56  1  0
 27 57  1  0
 28 58  1  0
 29 59  1  0
 30 60  1  0
 31 61  1  0
 34 62  1  0
 37 63  1  0
M  END
