
     RDKit          3D

 51 55  0  0  0  0  0  0  0  0999 V2000
    4.1058    3.2192   -0.2153 O   0  0  0  0  0  0  0  0  0  0  0  0
    4.1083    2.6308    1.0494 C   0  0  0  0  0  0  0  0  0  0  0  0
    4.0906    1.1448    0.8453 C   0  0  0  0  0  0  0  0  0  0  0  0
    4.0836    0.5940   -0.4196 C   0  0  0  0  0  0  0  0  0  0  0  0
    4.0754   -0.7652   -0.6054 C   0  0  0  0  0  0  0  0  0  0  0  0
    4.0806   -1.3225   -1.8825 N   0  0  0  0  0  0  0  0  0  0  0  0
    3.0204   -1.5612   -2.4890 N   0  0  0  0  0  0  0  0  0  0  0  0
    1.7714   -1.2688   -1.8951 C   0  0  0  0  0  0  0  0  0  0  0  0
    1.1897   -2.0203   -0.8971 C   0  0  0  0  0  0  0  0  0  0  0  0
   -0.0429   -1.6891   -0.3609 C   0  0  0  0  0  0  0  0  0  0  0  0
   -0.7529   -0.5909   -0.7970 C   0  0  0  0  0  0  0  0  0  0  0  0
   -2.0558   -0.2821   -0.1936 C   0  0  0  0  0  0  0  0  0  0  0  0
   -3.1725   -1.0657   -0.4808 C   0  0  0  0  0  0  0  0  0  0  0  0
   -2.9782   -2.1291   -1.3303 C   0  0  0  0  0  0  0  0  0  0  0  0
   -4.0666   -2.9255   -1.6279 C   0  0  0  0  0  0  0  0  0  0  0  0
   -5.3028   -2.6555   -1.0859 C   0  0  0  0  0  0  0  0  0  0  0  0
   -5.5225   -1.5886   -0.2269 C   0  0  0  0  0  0  0  0  0  0  0  0
   -4.4180   -0.8086    0.0539 C   0  0  0  0  0  0  0  0  0  0  0  0
   -4.5847    0.2601    0.9073 C   0  0  0  0  0  0  0  0  0  0  0  0
   -3.4977    1.0485    1.2062 C   0  0  0  0  0  0  0  0  0  0  0  0
   -3.6660    2.1335    2.0678 C   0  0  0  0  0  0  0  0  0  0  0  0
   -2.5760    2.9137    2.3554 C   0  0  0  0  0  0  0  0  0  0  0  0
   -1.3408    2.6359    1.8081 C   0  0  0  0  0  0  0  0  0  0  0  0
   -1.1524    1.5670    0.9529 C   0  0  0  0  0  0  0  0  0  0  0  0
   -2.2425    0.7801    0.6601 C   0  0  0  0  0  0  0  0  0  0  0  0
   -0.1860    0.1728   -1.7948 C   0  0  0  0  0  0  0  0  0  0  0  0
    1.0483   -0.1632   -2.3282 C   0  0  0  0  0  0  0  0  0  0  0  0
    1.5927    0.6057   -3.3116 F   0  0  0  0  0  0  0  0  0  0  0  0
    4.0735   -1.5678    0.5094 C   0  0  0  0  0  0  0  0  0  0  0  0
    4.0798   -1.0453    1.7958 C   0  0  0  0  0  0  0  0  0  0  0  0
    4.0883    0.3421    1.9837 C   0  0  0  0  0  0  0  0  0  0  0  0
    4.0943    0.8485    3.2610 O   0  0  0  0  0  0  0  0  0  0  0  0
    5.0320    3.3690   -0.5481 H   0  0  0  0  0  0  0  0  0  0  0  0
    5.0814    2.8675    1.5322 H   0  0  0  0  0  0  0  0  0  0  0  0
    3.2331    2.9432    1.6423 H   0  0  0  0  0  0  0  0  0  0  0  0
    4.0849    1.2249   -1.2967 H   0  0  0  0  0  0  0  0  0  0  0  0
    1.7431   -2.8973   -0.5463 H   0  0  0  0  0  0  0  0  0  0  0  0
   -0.4754   -2.3068    0.4290 H   0  0  0  0  0  0  0  0  0  0  0  0
   -1.9959   -2.3194   -1.7416 H   0  0  0  0  0  0  0  0  0  0  0  0
   -3.8887   -3.7509   -2.2941 H   0  0  0  0  0  0  0  0  0  0  0  0
   -6.1220   -3.3093   -1.3493 H   0  0  0  0  0  0  0  0  0  0  0  0
   -6.5046   -1.4351    0.1577 H   0  0  0  0  0  0  0  0  0  0  0  0
   -5.5540    0.5010    1.3530 H   0  0  0  0  0  0  0  0  0  0  0  0
   -4.6569    2.3120    2.4748 H   0  0  0  0  0  0  0  0  0  0  0  0
   -2.7111    3.7716    3.0356 H   0  0  0  0  0  0  0  0  0  0  0  0
   -0.5026    3.2728    2.0572 H   0  0  0  0  0  0  0  0  0  0  0  0
   -0.1907    1.3282    0.5093 H   0  0  0  0  0  0  0  0  0  0  0  0
   -0.7528    1.0365   -2.1313 H   0  0  0  0  0  0  0  0  0  0  0  0
    4.0653   -2.6639    0.4460 H   0  0  0  0  0  0  0  0  0  0  0  0
    4.0790   -1.6436    2.6939 H   0  0  0  0  0  0  0  0  0  0  0  0
    4.0914    0.2520    4.0750 H   0  0  0  0  0  0  0  0  0  0  0  0
  1  2  1  0
  2  3  1  0
  3  4  2  0
  4  5  1  0
  5  6  1  0
  6  7  2  0
  7  8  1  0
  8  9  2  0
  9 10  1  0
 10 11  2  0
 11 12  1  0
 12 13  1  0
 13 14  2  0
 14 15  1  0
 15 16  2  0
 16 17  1  0
 17 18  2  0
 18 19  1  0
 19 20  2  0
 20 21  1  0
 21 22  2  0
 22 23  1  0
 23 24  2  0
 24 25  1  0
 11 26  1  0
 26 27  2  0
 27 28  1  0
  5 29  2  0
 29 30  1  0
 30 31  2  0
 31 32  1  0
 31  3  1  0
 27  8  1  0
 25 12  2  0
 18 13  1  0
 25 20  1  0
  1 33  1  0
  2 34  1  0
  2 35  1  0
  4 36  1  0
  9 37  1  0
 10 38  1  0
 14 39  1  0
 15 40  1  0
 16 41  1  0
 17 42  1  0
 19 43  1  0
 21 44  1  0
 22 45  1  0
 23 46  1  0
 24 47  1  0
 26 48  1  0
 29 49  1  0
 30 50  1  0
 32 51  1  0
M  END
