
     RDKit          3D

 55 58  0  0  0  0  0  0  0  0999 V2000
    3.0497    2.9196    2.3203 C   0  0  0  0  0  0  0  0  0  0  0  0
    2.0621    3.4638    1.3215 C   0  0  0  0  0  0  0  0  0  0  0  0
    1.4676    2.4409    0.5425 O   0  0  0  0  0  0  0  0  0  0  0  0
    0.7600    1.4402    1.1586 C   0  0  0  0  0  0  0  0  0  0  0  0
    0.6563    1.4564    2.4012 O   0  0  0  0  0  0  0  0  0  0  0  0
    0.1424    0.3848    0.3996 C   0  0  0  0  0  0  0  0  0  0  0  0
    0.6750   -0.8299    0.0286 C   0  0  0  0  0  0  0  0  0  0  0  0
    2.0179   -1.2809    0.3581 C   0  0  0  0  0  0  0  0  0  0  0  0
    3.1456   -0.5750   -0.0133 C   0  0  0  0  0  0  0  0  0  0  0  0
    4.3917   -1.0453    0.3208 C   0  0  0  0  0  0  0  0  0  0  0  0
    5.5432   -0.3597   -0.0371 C   0  0  0  0  0  0  0  0  0  0  0  0
    6.7801   -0.8293    0.2959 C   0  0  0  0  0  0  0  0  0  0  0  0
    6.8669   -2.0093    1.0025 C   0  0  0  0  0  0  0  0  0  0  0  0
    5.7286   -2.6904    1.3590 C   0  0  0  0  0  0  0  0  0  0  0  0
    4.4612   -2.2323    1.0313 C   0  0  0  0  0  0  0  0  0  0  0  0
    3.3873   -2.8921    1.3783 O   0  0  0  0  0  0  0  0  0  0  0  0
    2.2160   -2.4467    1.0613 C   0  0  0  0  0  0  0  0  0  0  0  0
    1.1620   -3.0864    1.3960 O   0  0  0  0  0  0  0  0  0  0  0  0
   -0.2834   -1.4735   -0.6467 N   0  0  0  0  0  0  0  0  0  0  0  0
   -1.3818   -0.7021   -0.7040 N   0  0  0  0  0  0  0  0  0  0  0  0
   -2.5806   -1.1063   -1.3415 C   0  0  0  0  0  0  0  0  0  0  0  0
   -3.1404   -0.4901   -2.4358 C   0  0  0  0  0  0  0  0  0  0  0  0
   -4.3279   -0.9527   -3.0055 C   0  0  0  0  0  0  0  0  0  0  0  0
   -4.9567   -2.0345   -2.4791 C   0  0  0  0  0  0  0  0  0  0  0  0
   -4.4351   -2.6834   -1.3859 C   0  0  0  0  0  0  0  0  0  0  0  0
   -5.1586   -3.8799   -0.8228 C   0  0  0  0  0  0  0  0  0  0  0  0
   -3.2762   -2.2166   -0.8445 C   0  0  0  0  0  0  0  0  0  0  0  0
   -1.1586    0.4523   -0.0702 C   0  0  0  0  0  0  0  0  0  0  0  0
   -2.1130    1.5311    0.0860 C   0  0  0  0  0  0  0  0  0  0  0  0
   -1.7790    2.5860    0.7314 O   0  0  0  0  0  0  0  0  0  0  0  0
   -3.3924    1.4994   -0.4260 O   0  0  0  0  0  0  0  0  0  0  0  0
   -4.2639    2.5973   -0.2227 C   0  0  0  0  0  0  0  0  0  0  0  0
   -3.7108    3.8698   -0.8092 C   0  0  0  0  0  0  0  0  0  0  0  0
    3.4805    1.9529    2.0118 H   0  0  0  0  0  0  0  0  0  0  0  0
    2.6215    2.8974    3.3562 H   0  0  0  0  0  0  0  0  0  0  0  0
    3.8990    3.6292    2.3701 H   0  0  0  0  0  0  0  0  0  0  0  0
    1.2571    3.9938    1.8492 H   0  0  0  0  0  0  0  0  0  0  0  0
    2.6080    4.1326    0.6312 H   0  0  0  0  0  0  0  0  0  0  0  0
    3.0689    0.3570   -0.5713 H   0  0  0  0  0  0  0  0  0  0  0  0
    5.4274    0.5679   -0.5938 H   0  0  0  0  0  0  0  0  0  0  0  0
    7.6980   -0.2887    0.0115 H   0  0  0  0  0  0  0  0  0  0  0  0
    7.8443   -2.4163    1.2895 H   0  0  0  0  0  0  0  0  0  0  0  0
    5.8148   -3.6177    1.9162 H   0  0  0  0  0  0  0  0  0  0  0  0
   -2.6439    0.3636   -2.8545 H   0  0  0  0  0  0  0  0  0  0  0  0
   -4.7711   -0.4769   -3.8642 H   0  0  0  0  0  0  0  0  0  0  0  0
   -5.8736   -2.4083   -2.9024 H   0  0  0  0  0  0  0  0  0  0  0  0
   -5.8694   -4.2333   -1.5723 H   0  0  0  0  0  0  0  0  0  0  0  0
   -4.3668   -4.6462   -0.6178 H   0  0  0  0  0  0  0  0  0  0  0  0
   -5.6043   -3.6152    0.1547 H   0  0  0  0  0  0  0  0  0  0  0  0
   -2.8771   -2.7526    0.0320 H   0  0  0  0  0  0  0  0  0  0  0  0
   -4.3001    2.7642    0.8941 H   0  0  0  0  0  0  0  0  0  0  0  0
   -5.2828    2.3560   -0.5554 H   0  0  0  0  0  0  0  0  0  0  0  0
   -4.4737    4.4581   -1.3582 H   0  0  0  0  0  0  0  0  0  0  0  0
   -2.9253    3.5940   -1.5331 H   0  0  0  0  0  0  0  0  0  0  0  0
   -3.2866    4.5632   -0.0420 H   0  0  0  0  0  0  0  0  0  0  0  0
  1  2  1  0
  2  3  1  0
  3  4  1  0
  4  5  2  0
  4  6  1  0
  6  7  1  0
  7  8  1  0
  8  9  2  0
  9 10  1  0
 10 11  2  0
 11 12  1  0
 12 13  2  0
 13 14  1  0
 14 15  2  0
 15 16  1  0
 16 17  1  0
 17 18  2  0
  7 19  2  0
 19 20  1  0
 20 21  1  0
 21 22  2  0
 22 23  1  0
 23 24  2  0
 24 25  1  0
 25 26  1  0
 25 27  2  0
 20 28  1  0
 28 29  1  0
 29 30  2  0
 29 31  1  0
 31 32  1  0
 32 33  1  0
 28  6  2  0
 17  8  1  0
 27 21  1  0
 15 10  1  0
  1 34  1  0
  1 35  1  0
  1 36  1  0
  2 37  1  0
  2 38  1  0
  9 39  1  0
 11 40  1  0
 12 41  1  0
 13 42  1  0
 14 43  1  0
 22 44  1  0
 23 45  1  0
 24 46  1  0
 26 47  1  0
 26 48  1  0
 26 49  1  0
 27 50  1  0
 32 51  1  0
 32 52  1  0
 33 53  1  0
 33 54  1  0
 33 55  1  0
M  END
