
     RDKit          3D

 33 35  0  0  0  0  0  0  0  0999 V2000
   -6.5275   -0.6593    1.5833 C   0  0  0  0  0  0  0  0  0  0  0  0
   -5.6705   -1.5402    0.8642 O   0  0  0  0  0  0  0  0  0  0  0  0
   -4.3532   -1.1369    0.6361 C   0  0  0  0  0  0  0  0  0  0  0  0
   -3.5525   -2.0026   -0.0585 C   0  0  0  0  0  0  0  0  0  0  0  0
   -2.2384   -1.6367   -0.3045 C   0  0  0  0  0  0  0  0  0  0  0  0
   -1.7090   -0.4416    0.1212 C   0  0  0  0  0  0  0  0  0  0  0  0
   -0.3381   -0.0197   -0.1048 C   0  0  0  0  0  0  0  0  0  0  0  0
    0.7007   -0.8148    0.0161 C   0  0  0  0  0  0  0  0  0  0  0  0
    0.5511   -2.1617    0.3836 C   0  0  0  0  0  0  0  0  0  0  0  0
    0.4412   -3.2943    0.6868 N   0  0  0  0  0  0  0  0  0  0  0  0
    2.0488   -0.2650   -0.2512 C   0  0  0  0  0  0  0  0  0  0  0  0
    2.4114    0.9410   -0.6123 N   0  0  0  0  0  0  0  0  0  0  0  0
    3.6632    1.2298   -0.8035 C   0  0  0  0  0  0  0  0  0  0  0  0
    4.1882    2.4688   -1.1903 C   0  0  0  0  0  0  0  0  0  0  0  0
    5.5095    2.6636   -1.3640 C   0  0  0  0  0  0  0  0  0  0  0  0
    6.4490    1.6609   -1.1752 C   0  0  0  0  0  0  0  0  0  0  0  0
    5.9500    0.4328   -0.7936 C   0  0  0  0  0  0  0  0  0  0  0  0
    4.5814    0.2303   -0.6136 C   0  0  0  0  0  0  0  0  0  0  0  0
    3.5669   -1.0737   -0.1670 S   0  0  0  0  0  0  0  0  0  0  0  0
   -2.5747    0.3893    0.8197 C   0  0  0  0  0  0  0  0  0  0  0  0
   -3.8808    0.0834    1.0927 C   0  0  0  0  0  0  0  0  0  0  0  0
   -6.2630   -0.5810    2.6462 H   0  0  0  0  0  0  0  0  0  0  0  0
   -7.5892   -1.0266    1.5170 H   0  0  0  0  0  0  0  0  0  0  0  0
   -6.5285    0.3487    1.1164 H   0  0  0  0  0  0  0  0  0  0  0  0
   -3.9106   -2.9655   -0.4232 H   0  0  0  0  0  0  0  0  0  0  0  0
   -1.6281   -2.3293   -0.8600 H   0  0  0  0  0  0  0  0  0  0  0  0
   -0.1626    1.0167   -0.3914 H   0  0  0  0  0  0  0  0  0  0  0  0
    3.5330    3.3355   -1.3665 H   0  0  0  0  0  0  0  0  0  0  0  0
    5.9148    3.6462   -1.6699 H   0  0  0  0  0  0  0  0  0  0  0  0
    7.5014    1.8089   -1.3118 H   0  0  0  0  0  0  0  0  0  0  0  0
    6.6142   -0.3936   -0.6278 H   0  0  0  0  0  0  0  0  0  0  0  0
   -2.1673    1.3305    1.1581 H   0  0  0  0  0  0  0  0  0  0  0  0
   -4.5310    0.7559    1.6416 H   0  0  0  0  0  0  0  0  0  0  0  0
  1  2  1  0
  2  3  1  0
  3  4  2  0
  4  5  1  0
  5  6  2  0
  6  7  1  0
  7  8  2  0
  8  9  1  0
  9 10  3  0
  8 11  1  0
 11 12  2  0
 12 13  1  0
 13 14  2  0
 14 15  1  0
 15 16  2  0
 16 17  1  0
 17 18  2  0
 18 19  1  0
  6 20  1  0
 20 21  2  0
 21  3  1  0
 19 11  1  0
 18 13  1  0
  1 22  1  0
  1 23  1  0
  1 24  1  0
  4 25  1  0
  5 26  1  0
  7 27  1  0
 14 28  1  0
 15 29  1  0
 16 30  1  0
 17 31  1  0
 20 32  1  0
 21 33  1  0
M  END
