
     RDKit          3D

 52 55  0  0  0  0  0  0  0  0999 V2000
   -1.6594    6.1216   -0.3868 C   0  0  0  0  0  0  0  0  0  0  0  0
   -1.5800    4.7328   -0.1231 O   0  0  0  0  0  0  0  0  0  0  0  0
   -2.7268    4.1075    0.3455 C   0  0  0  0  0  0  0  0  0  0  0  0
   -3.7747    4.7791    0.5166 O   0  0  0  0  0  0  0  0  0  0  0  0
   -2.7693    2.6830    0.6526 C   0  0  0  0  0  0  0  0  0  0  0  0
   -3.9302    2.1001    1.1164 C   0  0  0  0  0  0  0  0  0  0  0  0
   -3.8518    0.7504    1.3713 C   0  0  0  0  0  0  0  0  0  0  0  0
   -4.9292    0.2240    1.8000 O   0  0  0  0  0  0  0  0  0  0  0  0
   -2.7609   -0.0178    1.2061 N   0  0  0  0  0  0  0  0  0  0  0  0
   -2.8034   -1.4396    1.5192 C   0  0  0  0  0  0  0  0  0  0  0  0
   -3.2941   -2.2955    0.4515 C   0  0  0  0  0  0  0  0  0  0  0  0
   -4.6255   -2.6948    0.4822 C   0  0  0  0  0  0  0  0  0  0  0  0
   -5.1546   -3.4880   -0.4850 C   0  0  0  0  0  0  0  0  0  0  0  0
   -4.3681   -3.9164   -1.5277 C   0  0  0  0  0  0  0  0  0  0  0  0
   -3.0565   -3.5323   -1.5716 C   0  0  0  0  0  0  0  0  0  0  0  0
   -2.5131   -2.7146   -0.5738 C   0  0  0  0  0  0  0  0  0  0  0  0
   -1.5929    0.5396    0.7474 C   0  0  0  0  0  0  0  0  0  0  0  0
   -0.4055   -0.0721    0.5395 C   0  0  0  0  0  0  0  0  0  0  0  0
    0.6305    0.6967    0.0876 C   0  0  0  0  0  0  0  0  0  0  0  0
    2.0171    0.2772   -0.2175 C   0  0  0  0  0  0  0  0  0  0  0  0
    2.8990    1.2081   -0.6592 C   0  0  0  0  0  0  0  0  0  0  0  0
    4.1927    0.7830   -0.9369 C   0  0  0  0  0  0  0  0  0  0  0  0
    4.5806   -0.5415   -0.7728 C   0  0  0  0  0  0  0  0  0  0  0  0
    5.9097   -0.9202   -1.0701 N   0  0  0  0  0  0  0  0  0  0  0  0
    6.3282   -2.2901   -0.9053 C   0  0  0  0  0  0  0  0  0  0  0  0
    6.8680    0.0662   -1.5448 C   0  0  0  0  0  0  0  0  0  0  0  0
    3.6732   -1.4607   -0.3263 C   0  0  0  0  0  0  0  0  0  0  0  0
    2.3816   -1.0230   -0.0518 C   0  0  0  0  0  0  0  0  0  0  0  0
   -0.0699    2.2496   -0.0360 S   0  0  0  0  0  0  0  0  0  0  0  0
   -1.6469    1.8770    0.4874 C   0  0  0  0  0  0  0  0  0  0  0  0
   -1.1629    6.6401    0.4834 H   0  0  0  0  0  0  0  0  0  0  0  0
   -2.7097    6.4863   -0.3751 H   0  0  0  0  0  0  0  0  0  0  0  0
   -1.1823    6.4025   -1.3469 H   0  0  0  0  0  0  0  0  0  0  0  0
   -4.8384    2.6583    1.2702 H   0  0  0  0  0  0  0  0  0  0  0  0
   -3.4682   -1.5122    2.4303 H   0  0  0  0  0  0  0  0  0  0  0  0
   -1.7949   -1.7225    1.8943 H   0  0  0  0  0  0  0  0  0  0  0  0
   -5.2991   -2.3962    1.2840 H   0  0  0  0  0  0  0  0  0  0  0  0
   -6.1865   -3.7917   -0.4527 H   0  0  0  0  0  0  0  0  0  0  0  0
   -4.8306   -4.5502   -2.2812 H   0  0  0  0  0  0  0  0  0  0  0  0
   -2.4452   -3.8762   -2.3986 H   0  0  0  0  0  0  0  0  0  0  0  0
   -1.4587   -2.4595   -0.6899 H   0  0  0  0  0  0  0  0  0  0  0  0
   -0.1979   -1.1498    0.7219 H   0  0  0  0  0  0  0  0  0  0  0  0
    2.6380    2.2495   -0.8007 H   0  0  0  0  0  0  0  0  0  0  0  0
    4.8914    1.5232   -1.2874 H   0  0  0  0  0  0  0  0  0  0  0  0
    7.4070   -2.4209   -0.9885 H   0  0  0  0  0  0  0  0  0  0  0  0
    6.0057   -2.6072    0.1073 H   0  0  0  0  0  0  0  0  0  0  0  0
    5.7399   -2.9097   -1.6185 H   0  0  0  0  0  0  0  0  0  0  0  0
    6.9592    0.8201   -0.7336 H   0  0  0  0  0  0  0  0  0  0  0  0
    6.4714    0.5008   -2.4830 H   0  0  0  0  0  0  0  0  0  0  0  0
    7.8522   -0.3872   -1.7239 H   0  0  0  0  0  0  0  0  0  0  0  0
    3.9601   -2.5082   -0.1909 H   0  0  0  0  0  0  0  0  0  0  0  0
    1.6820   -1.7783    0.3020 H   0  0  0  0  0  0  0  0  0  0  0  0
  1  2  1  0
  2  3  1  0
  3  4  2  0
  3  5  1  0
  5  6  2  0
  6  7  1  0
  7  8  2  0
  7  9  1  0
  9 10  1  0
 10 11  1  0
 11 12  2  0
 12 13  1  0
 13 14  2  0
 14 15  1  0
 15 16  2  0
  9 17  1  0
 17 18  1  0
 18 19  2  0
 19 20  1  0
 20 21  2  0
 21 22  1  0
 22 23  2  0
 23 24  1  0
 24 25  1  0
 24 26  1  0
 23 27  1  0
 27 28  2  0
 19 29  1  0
 29 30  1  0
 30  5  1  0
 16 11  1  0
 30 17  2  0
 28 20  1  0
  1 31  1  0
  1 32  1  0
  1 33  1  0
  6 34  1  0
 10 35  1  0
 10 36  1  0
 12 37  1  0
 13 38  1  0
 14 39  1  0
 15 40  1  0
 16 41  1  0
 18 42  1  0
 21 43  1  0
 22 44  1  0
 25 45  1  0
 25 46  1  0
 25 47  1  0
 26 48  1  0
 26 49  1  0
 26 50  1  0
 27 51  1  0
 28 52  1  0
M  END
