
     RDKit          3D

 62 66  0  0  0  0  0  0  0  0999 V2000
    2.2361   -3.7802    0.7789 C   0  0  0  0  0  0  0  0  0  0  0  0
    0.9045   -3.9286    0.0784 C   0  0  0  0  0  0  0  0  0  0  0  0
    0.0383   -2.6756    0.2827 C   0  0  0  0  0  0  0  0  0  0  0  0
   -0.2230   -2.4444    1.7336 C   0  0  0  0  0  0  0  0  0  0  0  0
   -1.0478   -1.2984    2.1168 C   0  0  0  0  0  0  0  0  0  0  0  0
   -0.6385    0.0912    1.8838 C   0  0  0  0  0  0  0  0  0  0  0  0
   -0.3749    0.5869    0.5936 N   0  0  0  0  0  0  0  0  0  0  0  0
   -1.3309    1.0510   -0.2641 C   0  0  0  0  0  0  0  0  0  0  0  0
   -2.7121    1.0993   -0.1384 C   0  0  0  0  0  0  0  0  0  0  0  0
   -3.4755    1.6199   -1.1524 C   0  0  0  0  0  0  0  0  0  0  0  0
   -4.9298    1.6996   -1.0833 C   0  0  0  0  0  0  0  0  0  0  0  0
   -5.6572    1.2907   -0.0645 C   0  0  0  0  0  0  0  0  0  0  0  0
   -7.1145    1.3931   -0.0450 C   0  0  0  0  0  0  0  0  0  0  0  0
   -7.9501    1.8949   -1.0050 C   0  0  0  0  0  0  0  0  0  0  0  0
   -9.2634    1.8780   -0.7480 C   0  0  0  0  0  0  0  0  0  0  0  0
   -9.6682    1.3616    0.4521 C   0  0  0  0  0  0  0  0  0  0  0  0
   -8.1919    0.9149    1.1841 S   0  0  0  0  0  0  0  0  0  0  0  0
   -2.8768    2.1081   -2.3238 C   0  0  0  0  0  0  0  0  0  0  0  0
   -1.5046    2.0540   -2.4353 C   0  0  0  0  0  0  0  0  0  0  0  0
   -0.7362    1.5277   -1.4097 C   0  0  0  0  0  0  0  0  0  0  0  0
    0.6155    1.3365   -1.2172 C   0  0  0  0  0  0  0  0  0  0  0  0
    1.6862    1.6358   -2.0534 C   0  0  0  0  0  0  0  0  0  0  0  0
    2.9556    1.3520   -1.6437 C   0  0  0  0  0  0  0  0  0  0  0  0
    3.2162    0.7791   -0.4307 C   0  0  0  0  0  0  0  0  0  0  0  0
    4.5760    0.4825   -0.0081 C   0  0  0  0  0  0  0  0  0  0  0  0
    5.6556    0.7140   -0.6969 C   0  0  0  0  0  0  0  0  0  0  0  0
    7.0168    0.3897   -0.2136 C   0  0  0  0  0  0  0  0  0  0  0  0
    7.3712   -0.1810    0.9789 C   0  0  0  0  0  0  0  0  0  0  0  0
    8.6740   -0.3828    1.2030 C   0  0  0  0  0  0  0  0  0  0  0  0
    9.5484   -0.0018    0.2207 C   0  0  0  0  0  0  0  0  0  0  0  0
    8.5191    0.6262   -0.9843 S   0  0  0  0  0  0  0  0  0  0  0  0
    2.1317    0.4895    0.3865 C   0  0  0  0  0  0  0  0  0  0  0  0
    0.8448    0.7610    0.0069 C   0  0  0  0  0  0  0  0  0  0  0  0
    2.8927   -4.5899    0.3996 H   0  0  0  0  0  0  0  0  0  0  0  0
    2.7164   -2.8044    0.5557 H   0  0  0  0  0  0  0  0  0  0  0  0
    2.1377   -3.9472    1.8742 H   0  0  0  0  0  0  0  0  0  0  0  0
    0.3837   -4.8076    0.5011 H   0  0  0  0  0  0  0  0  0  0  0  0
    1.0704   -4.0213   -1.0006 H   0  0  0  0  0  0  0  0  0  0  0  0
   -0.9467   -2.9578   -0.1914 H   0  0  0  0  0  0  0  0  0  0  0  0
    0.4753   -1.8654   -0.2660 H   0  0  0  0  0  0  0  0  0  0  0  0
   -0.7434   -3.3931    2.1058 H   0  0  0  0  0  0  0  0  0  0  0  0
    0.7889   -2.3980    2.2701 H   0  0  0  0  0  0  0  0  0  0  0  0
   -1.3302   -1.3497    3.2356 H   0  0  0  0  0  0  0  0  0  0  0  0
   -2.0733   -1.4307    1.6201 H   0  0  0  0  0  0  0  0  0  0  0  0
    0.2088    0.3813    2.6151 H   0  0  0  0  0  0  0  0  0  0  0  0
   -1.4956    0.7404    2.2944 H   0  0  0  0  0  0  0  0  0  0  0  0
   -3.1691    0.7248    0.7598 H   0  0  0  0  0  0  0  0  0  0  0  0
   -5.5041    2.1240   -1.9178 H   0  0  0  0  0  0  0  0  0  0  0  0
   -5.1735    0.8643    0.7894 H   0  0  0  0  0  0  0  0  0  0  0  0
   -7.5213    2.2949   -1.9538 H   0  0  0  0  0  0  0  0  0  0  0  0
  -10.0305    2.2600   -1.4571 H   0  0  0  0  0  0  0  0  0  0  0  0
  -10.7015    1.2670    0.8325 H   0  0  0  0  0  0  0  0  0  0  0  0
   -3.4677    2.5181   -3.1241 H   0  0  0  0  0  0  0  0  0  0  0  0
   -1.0228    2.4319   -3.3451 H   0  0  0  0  0  0  0  0  0  0  0  0
    1.5106    2.0951   -3.0314 H   0  0  0  0  0  0  0  0  0  0  0  0
    3.7625    1.5926   -2.3069 H   0  0  0  0  0  0  0  0  0  0  0  0
    4.7433    0.0186    0.9815 H   0  0  0  0  0  0  0  0  0  0  0  0
    5.5882    1.1618   -1.6679 H   0  0  0  0  0  0  0  0  0  0  0  0
    6.5778   -0.4522    1.7067 H   0  0  0  0  0  0  0  0  0  0  0  0
    9.0715   -0.8398    2.1389 H   0  0  0  0  0  0  0  0  0  0  0  0
   10.6498   -0.0972    0.2452 H   0  0  0  0  0  0  0  0  0  0  0  0
    2.3073    0.0351    1.3538 H   0  0  0  0  0  0  0  0  0  0  0  0
  1  2  1  0
  2  3  1  0
  3  4  1  0
  4  5  1  0
  5  6  1  0
  6  7  1  0
  7  8  1  0
  8  9  2  0
  9 10  1  0
 10 11  1  0
 11 12  2  0
 12 13  1  0
 13 14  2  0
 14 15  1  0
 15 16  2  0
 16 17  1  0
 10 18  2  0
 18 19  1  0
 19 20  2  0
 20 21  1  0
 21 22  2  0
 22 23  1  0
 23 24  2  0
 24 25  1  0
 25 26  2  0
 26 27  1  0
 27 28  2  0
 28 29  1  0
 29 30  2  0
 30 31  1  0
 24 32  1  0
 32 33  2  0
 33  7  1  0
 20  8  1  0
 33 21  1  0
 17 13  1  0
 31 27  1  0
  1 34  1  0
  1 35  1  0
  1 36  1  0
  2 37  1  0
  2 38  1  0
  3 39  1  0
  3 40  1  0
  4 41  1  0
  4 42  1  0
  5 43  1  0
  5 44  1  0
  6 45  1  0
  6 46  1  0
  9 47  1  0
 11 48  1  0
 12 49  1  0
 14 50  1  0
 15 51  1  0
 16 52  1  0
 18 53  1  0
 19 54  1  0
 22 55  1  0
 23 56  1  0
 25 57  1  0
 26 58  1  0
 28 59  1  0
 29 60  1  0
 30 61  1  0
 32 62  1  0
M  END
