
     RDKit          3D

 73 77  0  0  0  0  0  0  0  0999 V2000
   -3.9526   -5.0429   -2.2535 C   0  0  0  0  0  0  0  0  0  0  0  0
   -4.0713   -3.6610   -2.8650 C   0  0  0  0  0  0  0  0  0  0  0  0
   -3.8864   -2.7186   -1.8292 O   0  0  0  0  0  0  0  0  0  0  0  0
   -4.6782   -2.6151   -0.7001 C   0  0  0  0  0  0  0  0  0  0  0  0
   -5.6382   -3.4138   -0.5774 O   0  0  0  0  0  0  0  0  0  0  0  0
   -4.4124   -1.5852    0.3594 C   0  0  0  0  0  0  0  0  0  0  0  0
   -3.3725   -0.6714    0.0214 N   0  0  0  0  0  0  0  0  0  0  0  0
   -1.9818   -0.9040    0.2892 C   0  0  0  0  0  0  0  0  0  0  0  0
   -1.4973   -1.9230    0.8229 O   0  0  0  0  0  0  0  0  0  0  0  0
   -1.2787    0.2768   -0.1854 C   0  0  0  0  0  0  0  0  0  0  0  0
   -0.0631    0.8245   -0.3052 C   0  0  0  0  0  0  0  0  0  0  0  0
    1.1492    0.1545    0.1484 C   0  0  0  0  0  0  0  0  0  0  0  0
    1.1843   -0.4021    1.4324 C   0  0  0  0  0  0  0  0  0  0  0  0
    2.3109   -1.0718    1.8648 C   0  0  0  0  0  0  0  0  0  0  0  0
    3.4276   -1.2304    1.0955 C   0  0  0  0  0  0  0  0  0  0  0  0
    4.6124   -1.9271    1.5063 N   0  0  0  0  0  0  0  0  0  0  0  0
    4.6901   -2.6226    2.7748 C   0  0  0  0  0  0  0  0  0  0  0  0
    5.3265   -3.9990    2.5304 C   0  0  0  0  0  0  0  0  0  0  0  0
    6.6774   -3.8812    1.8837 C   0  0  0  0  0  0  0  0  0  0  0  0
    6.9546   -2.4424    1.4769 C   0  0  0  0  0  0  0  0  0  0  0  0
    5.7895   -1.9594    0.6561 C   0  0  0  0  0  0  0  0  0  0  0  0
    3.4001   -0.6848   -0.1693 C   0  0  0  0  0  0  0  0  0  0  0  0
    2.2810   -0.0159   -0.6082 C   0  0  0  0  0  0  0  0  0  0  0  0
   -0.1978    2.0829   -0.9082 N   0  0  0  0  0  0  0  0  0  0  0  0
    0.8117    3.0443   -1.2157 C   0  0  0  0  0  0  0  0  0  0  0  0
    1.0366    3.9589   -0.0485 C   0  0  0  0  0  0  0  0  0  0  0  0
    0.4196    3.7202    1.0215 O   0  0  0  0  0  0  0  0  0  0  0  0
    1.8943    5.0444   -0.1187 O   0  0  0  0  0  0  0  0  0  0  0  0
    2.0466    5.8498    1.0271 C   0  0  0  0  0  0  0  0  0  0  0  0
    2.9931    7.0050    0.7832 C   0  0  0  0  0  0  0  0  0  0  0  0
   -1.5953    2.3388   -1.1873 C   0  0  0  0  0  0  0  0  0  0  0  0
   -2.0798    3.3475   -1.7159 O   0  0  0  0  0  0  0  0  0  0  0  0
   -2.3040    1.1621   -0.7167 C   0  0  0  0  0  0  0  0  0  0  0  0
   -3.5165    0.5953   -0.5888 C   0  0  0  0  0  0  0  0  0  0  0  0
   -4.7382    1.2658   -1.0012 C   0  0  0  0  0  0  0  0  0  0  0  0
   -5.7481    0.6948   -1.7330 C   0  0  0  0  0  0  0  0  0  0  0  0
   -6.9106    1.3401   -2.0961 C   0  0  0  0  0  0  0  0  0  0  0  0
   -7.1078    2.6488   -1.7166 C   0  0  0  0  0  0  0  0  0  0  0  0
   -6.1146    3.2602   -0.9788 C   0  0  0  0  0  0  0  0  0  0  0  0
   -4.9569    2.5992   -0.6239 C   0  0  0  0  0  0  0  0  0  0  0  0
   -4.0363   -4.9833   -1.1588 H   0  0  0  0  0  0  0  0  0  0  0  0
   -2.9502   -5.4911   -2.5258 H   0  0  0  0  0  0  0  0  0  0  0  0
   -4.7288   -5.7422   -2.6325 H   0  0  0  0  0  0  0  0  0  0  0  0
   -5.0692   -3.5277   -3.3343 H   0  0  0  0  0  0  0  0  0  0  0  0
   -3.2362   -3.5058   -3.6039 H   0  0  0  0  0  0  0  0  0  0  0  0
   -4.1573   -2.1026    1.3322 H   0  0  0  0  0  0  0  0  0  0  0  0
   -5.3953   -1.1087    0.5563 H   0  0  0  0  0  0  0  0  0  0  0  0
    0.3149   -0.2909    2.0654 H   0  0  0  0  0  0  0  0  0  0  0  0
    2.2887   -1.4807    2.8668 H   0  0  0  0  0  0  0  0  0  0  0  0
    5.3297   -2.1159    3.5138 H   0  0  0  0  0  0  0  0  0  0  0  0
    3.6803   -2.8613    3.1843 H   0  0  0  0  0  0  0  0  0  0  0  0
    4.6295   -4.6766    2.0075 H   0  0  0  0  0  0  0  0  0  0  0  0
    5.4746   -4.4525    3.5382 H   0  0  0  0  0  0  0  0  0  0  0  0
    6.6758   -4.4683    0.9356 H   0  0  0  0  0  0  0  0  0  0  0  0
    7.4884   -4.2974    2.5206 H   0  0  0  0  0  0  0  0  0  0  0  0
    7.9096   -2.3710    0.9058 H   0  0  0  0  0  0  0  0  0  0  0  0
    6.9931   -1.8333    2.4007 H   0  0  0  0  0  0  0  0  0  0  0  0
    5.9919   -0.9638    0.1988 H   0  0  0  0  0  0  0  0  0  0  0  0
    5.6685   -2.6537   -0.2106 H   0  0  0  0  0  0  0  0  0  0  0  0
    4.2620   -0.7863   -0.8172 H   0  0  0  0  0  0  0  0  0  0  0  0
    2.3090    0.3769   -1.6074 H   0  0  0  0  0  0  0  0  0  0  0  0
    0.5089    3.6560   -2.1168 H   0  0  0  0  0  0  0  0  0  0  0  0
    1.7879    2.6258   -1.4708 H   0  0  0  0  0  0  0  0  0  0  0  0
    2.4423    5.2770    1.8949 H   0  0  0  0  0  0  0  0  0  0  0  0
    1.0572    6.2557    1.2926 H   0  0  0  0  0  0  0  0  0  0  0  0
    2.4249    7.8855    0.3614 H   0  0  0  0  0  0  0  0  0  0  0  0
    3.7545    6.7304    0.0528 H   0  0  0  0  0  0  0  0  0  0  0  0
    3.4482    7.3683    1.7267 H   0  0  0  0  0  0  0  0  0  0  0  0
   -5.6361   -0.3239   -2.0592 H   0  0  0  0  0  0  0  0  0  0  0  0
   -7.6862    0.8325   -2.6833 H   0  0  0  0  0  0  0  0  0  0  0  0
   -8.0036    3.1853   -1.9823 H   0  0  0  0  0  0  0  0  0  0  0  0
   -6.2614    4.3068   -0.6704 H   0  0  0  0  0  0  0  0  0  0  0  0
   -4.1828    3.0943   -0.0319 H   0  0  0  0  0  0  0  0  0  0  0  0
  1  2  1  0
  2  3  1  0
  3  4  1  0
  4  5  2  0
  4  6  1  0
  6  7  1  0
  7  8  1  0
  8  9  2  0
  8 10  1  0
 10 11  2  0
 11 12  1  0
 12 13  2  0
 13 14  1  0
 14 15  2  0
 15 16  1  0
 16 17  1  0
 17 18  1  0
 18 19  1  0
 19 20  1  0
 20 21  1  0
 15 22  1  0
 22 23  2  0
 11 24  1  0
 24 25  1  0
 25 26  1  0
 26 27  2  0
 26 28  1  0
 28 29  1  0
 29 30  1  0
 24 31  1  0
 31 32  2  0
 31 33  1  0
 33 34  2  0
 34 35  1  0
 35 36  2  0
 36 37  1  0
 37 38  2  0
 38 39  1  0
 39 40  2  0
 34  7  1  0
 40 35  1  0
 33 10  1  0
 23 12  1  0
 21 16  1  0
  1 41  1  0
  1 42  1  0
  1 43  1  0
  2 44  1  0
  2 45  1  0
  6 46  1  0
  6 47  1  0
 13 48  1  0
 14 49  1  0
 17 50  1  0
 17 51  1  0
 18 52  1  0
 18 53  1  0
 19 54  1  0
 19 55  1  0
 20 56  1  0
 20 57  1  0
 21 58  1  0
 21 59  1  0
 22 60  1  0
 23 61  1  0
 25 62  1  0
 25 63  1  0
 29 64  1  0
 29 65  1  0
 30 66  1  0
 30 67  1  0
 30 68  1  0
 36 69  1  0
 37 70  1  0
 38 71  1  0
 39 72  1  0
 40 73  1  0
M  END
