
     RDKit          3D

 26 28  0  0  0  0  0  0  0  0999 V2000
   -2.6484   -2.1534    0.2273 N   0  0  0  0  0  0  0  0  0  0  0  0
   -2.4121   -0.7708    0.3680 C   0  0  0  0  0  0  0  0  0  0  0  0
   -3.4337    0.0869    0.6842 C   0  0  0  0  0  0  0  0  0  0  0  0
   -3.2114    1.4476    0.8247 C   0  0  0  0  0  0  0  0  0  0  0  0
   -1.9234    1.9263    0.6371 C   0  0  0  0  0  0  0  0  0  0  0  0
   -0.8790    1.0789    0.3179 C   0  0  0  0  0  0  0  0  0  0  0  0
   -1.1449   -0.2871    0.1852 C   0  0  0  0  0  0  0  0  0  0  0  0
   -0.0225   -1.1366   -0.1496 C   0  0  0  0  0  0  0  0  0  0  0  0
   -0.2702   -2.3808   -0.2694 O   0  0  0  0  0  0  0  0  0  0  0  0
    1.3292   -0.6206   -0.3447 C   0  0  0  0  0  0  0  0  0  0  0  0
    2.3815   -1.4531   -0.6635 C   0  0  0  0  0  0  0  0  0  0  0  0
    3.6514   -0.9340   -0.8422 C   0  0  0  0  0  0  0  0  0  0  0  0
    3.9205    0.4132   -0.7126 C   0  0  0  0  0  0  0  0  0  0  0  0
    2.8619    1.2545   -0.3914 C   0  0  0  0  0  0  0  0  0  0  0  0
    1.5971    0.7306   -0.2144 C   0  0  0  0  0  0  0  0  0  0  0  0
    0.4672    1.5883    0.1230 C   0  0  0  0  0  0  0  0  0  0  0  0
    0.7242    2.8324    0.2410 O   0  0  0  0  0  0  0  0  0  0  0  0
   -3.2027   -2.5532   -0.5809 H   0  0  0  0  0  0  0  0  0  0  0  0
   -2.2733   -2.8308    0.9334 H   0  0  0  0  0  0  0  0  0  0  0  0
   -4.4200   -0.3204    0.8223 H   0  0  0  0  0  0  0  0  0  0  0  0
   -4.0333    2.0954    1.0734 H   0  0  0  0  0  0  0  0  0  0  0  0
   -1.7063    2.9929    0.7389 H   0  0  0  0  0  0  0  0  0  0  0  0
    2.1929   -2.5277   -0.7719 H   0  0  0  0  0  0  0  0  0  0  0  0
    4.4722   -1.6075   -1.0941 H   0  0  0  0  0  0  0  0  0  0  0  0
    4.9181    0.8176   -0.8534 H   0  0  0  0  0  0  0  0  0  0  0  0
    3.0648    2.3114   -0.2881 H   0  0  0  0  0  0  0  0  0  0  0  0
  1  2  1  0
  2  3  2  0
  3  4  1  0
  4  5  2  0
  5  6  1  0
  6  7  2  0
  7  8  1  0
  8  9  2  0
  8 10  1  0
 10 11  2  0
 11 12  1  0
 12 13  2  0
 13 14  1  0
 14 15  2  0
 15 16  1  0
 16 17  2  0
  7  2  1  0
 15 10  1  0
 16  6  1  0
  1 18  1  0
  1 19  1  0
  3 20  1  0
  4 21  1  0
  5 22  1  0
 11 23  1  0
 12 24  1  0
 13 25  1  0
 14 26  1  0
M  END
