
     RDKit          3D

 49 53  0  0  0  0  0  0  0  0999 V2000
    8.7026   -0.5502    0.3168 C   0  0  0  0  0  0  0  0  0  0  0  0
    7.7642    0.0914    1.1516 O   0  0  0  0  0  0  0  0  0  0  0  0
    6.3928    0.0501    0.8849 C   0  0  0  0  0  0  0  0  0  0  0  0
    5.4711    0.6711    1.6907 C   0  0  0  0  0  0  0  0  0  0  0  0
    4.1116    0.6285    1.4238 C   0  0  0  0  0  0  0  0  0  0  0  0
    3.6916   -0.0640    0.3097 C   0  0  0  0  0  0  0  0  0  0  0  0
    2.3309   -0.1457   -0.0168 C   0  0  0  0  0  0  0  0  0  0  0  0
    1.9051   -0.8356   -1.1278 C   0  0  0  0  0  0  0  0  0  0  0  0
    0.5040   -0.9533   -1.5153 C   0  0  0  0  0  0  0  0  0  0  0  0
   -0.4934   -0.4055   -0.8329 C   0  0  0  0  0  0  0  0  0  0  0  0
   -1.8717   -0.5739   -1.2941 C   0  0  0  0  0  0  0  0  0  0  0  0
   -2.8655    0.0102   -0.5554 C   0  0  0  0  0  0  0  0  0  0  0  0
   -2.4770    0.7545    0.6334 C   0  0  0  0  0  0  0  0  0  0  0  0
   -3.5313    1.2648    1.5041 C   0  0  0  0  0  0  0  0  0  0  0  0
   -4.8982    1.1940    0.9830 C   0  0  0  0  0  0  0  0  0  0  0  0
   -5.8820    1.8282    1.7548 C   0  0  0  0  0  0  0  0  0  0  0  0
   -7.1946    1.7717    1.3373 C   0  0  0  0  0  0  0  0  0  0  0  0
   -7.5599    1.1065    0.1800 C   0  0  0  0  0  0  0  0  0  0  0  0
   -6.5807    0.4836   -0.5758 C   0  0  0  0  0  0  0  0  0  0  0  0
   -5.2729    0.5429   -0.1561 C   0  0  0  0  0  0  0  0  0  0  0  0
   -4.2313   -0.0968   -0.9925 C   0  0  0  0  0  0  0  0  0  0  0  0
   -4.6104   -0.7068   -2.0473 O   0  0  0  0  0  3  0  0  0  0  0  0
   -3.6355   -1.3605   -2.9097 B   0  0  0  0  0  4  0  0  0  0  0  0
   -3.7041   -0.9204   -4.2956 F   0  0  0  0  0  0  0  0  0  0  0  0
   -3.9591   -2.7994   -2.9406 F   0  0  0  0  0  0  0  0  0  0  0  0
   -2.2407   -1.2706   -2.4065 O   0  0  0  0  0  0  0  0  0  0  0  0
    2.8578   -1.4629   -1.9387 C   0  0  0  0  0  0  0  0  0  0  0  0
    4.1888   -1.3863   -1.6243 C   0  0  0  0  0  0  0  0  0  0  0  0
    4.6003   -0.6911   -0.5074 C   0  0  0  0  0  0  0  0  0  0  0  0
    5.9479   -0.6340   -0.2202 C   0  0  0  0  0  0  0  0  0  0  0  0
    8.4123   -1.5847    0.0640 H   0  0  0  0  0  0  0  0  0  0  0  0
    9.6524   -0.6284    0.9198 H   0  0  0  0  0  0  0  0  0  0  0  0
    8.9544    0.0741   -0.5525 H   0  0  0  0  0  0  0  0  0  0  0  0
    5.8293    1.2107    2.5635 H   0  0  0  0  0  0  0  0  0  0  0  0
    3.4164    1.1273    2.0779 H   0  0  0  0  0  0  0  0  0  0  0  0
    1.6255    0.3496    0.6304 H   0  0  0  0  0  0  0  0  0  0  0  0
    0.2604   -1.5260   -2.4206 H   0  0  0  0  0  0  0  0  0  0  0  0
   -0.2477    0.1531    0.0500 H   0  0  0  0  0  0  0  0  0  0  0  0
   -1.6941    1.5446    0.3858 H   0  0  0  0  0  0  0  0  0  0  0  0
   -1.8607    0.0157    1.2718 H   0  0  0  0  0  0  0  0  0  0  0  0
   -3.5330    0.7136    2.5167 H   0  0  0  0  0  0  0  0  0  0  0  0
   -3.2918    2.3511    1.7419 H   0  0  0  0  0  0  0  0  0  0  0  0
   -5.6548    2.3587    2.6616 H   0  0  0  0  0  0  0  0  0  0  0  0
   -7.9776    2.2499    1.9088 H   0  0  0  0  0  0  0  0  0  0  0  0
   -8.6042    1.0944   -0.0987 H   0  0  0  0  0  0  0  0  0  0  0  0
   -6.8743   -0.0300   -1.4722 H   0  0  0  0  0  0  0  0  0  0  0  0
    2.5289   -2.0080   -2.8153 H   0  0  0  0  0  0  0  0  0  0  0  0
    4.9372   -1.8648   -2.2396 H   0  0  0  0  0  0  0  0  0  0  0  0
    6.6612   -1.1411   -0.8841 H   0  0  0  0  0  0  0  0  0  0  0  0
  1  2  1  0
  2  3  1  0
  3  4  2  0
  4  5  1  0
  5  6  2  0
  6  7  1  0
  7  8  2  0
  8  9  1  0
  9 10  2  0
 10 11  1  0
 11 12  2  0
 12 13  1  0
 13 14  1  0
 14 15  1  0
 15 16  2  0
 16 17  1  0
 17 18  2  0
 18 19  1  0
 19 20  2  0
 20 21  1  0
 21 22  2  0
 22 23  1  0
 23 24  1  0
 23 25  1  0
 23 26  1  0
  8 27  1  0
 27 28  2  0
 28 29  1  0
 29 30  2  0
 30  3  1  0
 29  6  1  0
 26 11  1  0
 21 12  1  0
 20 15  1  0
  1 31  1  0
  1 32  1  0
  1 33  1  0
  4 34  1  0
  5 35  1  0
  7 36  1  0
  9 37  1  0
 10 38  1  0
 13 39  1  0
 13 40  1  0
 14 41  1  0
 14 42  1  0
 16 43  1  0
 17 44  1  0
 18 45  1  0
 19 46  1  0
 27 47  1  0
 28 48  1  0
 30 49  1  0
M  CHG  2  22   1  23  -1
M  END
