
     RDKit          3D

 62 69  0  0  0  0  0  0  0  0999 V2000
    4.5236   -0.0001    2.7958 C   0  0  0  0  0  0  0  0  0  0  0  0
    5.7091    0.1008    1.8624 C   0  0  0  0  0  0  0  0  0  0  0  0
    6.5142   -1.1866    2.0402 C   0  0  0  0  0  0  0  0  0  0  0  0
    6.5991    1.2576    2.1860 C   0  0  0  0  0  0  0  0  0  0  0  0
    5.2772    0.1722    0.4436 C   0  0  0  0  0  0  0  0  0  0  0  0
    6.2298    0.2715   -0.5412 C   0  0  0  0  0  0  0  0  0  0  0  0
    5.9123    0.3420   -1.8827 C   0  0  0  0  0  0  0  0  0  0  0  0
    4.5824    0.3144   -2.3002 C   0  0  0  0  0  0  0  0  0  0  0  0
    3.9835    0.3617   -3.4535 O   0  0  0  0  0  0  0  0  0  0  0  0
    2.6646    0.3013   -3.3360 C   0  0  0  0  0  0  0  0  0  0  0  0
    1.6609    0.3170   -4.2433 N   0  0  0  0  0  0  0  0  0  0  0  0
    0.3806    0.2407   -3.8461 C   0  0  0  0  0  0  0  0  0  0  0  0
   -0.7814    0.2339   -4.4956 O   0  0  0  0  0  0  0  0  0  0  0  0
   -1.7832    0.1412   -3.6542 C   0  0  0  0  0  0  0  0  0  0  0  0
   -3.1677    0.0941   -3.8019 C   0  0  0  0  0  0  0  0  0  0  0  0
   -3.9290   -0.0077   -2.6574 C   0  0  0  0  0  0  0  0  0  0  0  0
   -3.4006   -0.0651   -1.3868 C   0  0  0  0  0  0  0  0  0  0  0  0
   -4.2665   -0.1524   -0.2238 N   0  0  0  0  0  0  0  0  0  0  0  0
   -5.0810    0.9682    0.0552 C   0  0  0  0  0  0  0  0  0  0  0  0
   -5.0122    2.1029   -0.7683 C   0  0  0  0  0  0  0  0  0  0  0  0
   -5.7861    3.2184   -0.5312 C   0  0  0  0  0  0  0  0  0  0  0  0
   -6.6625    3.2653    0.5286 C   0  0  0  0  0  0  0  0  0  0  0  0
   -6.7296    2.1503    1.3378 C   0  0  0  0  0  0  0  0  0  0  0  0
   -5.9654    1.0597    1.0966 C   0  0  0  0  0  0  0  0  0  0  0  0
   -6.1395   -0.3268    2.2290 S   0  0  0  0  0  0  0  0  0  0  0  0
   -5.0181   -1.5687    1.6452 C   0  0  0  0  0  0  0  0  0  0  0  0
   -4.9198   -2.7610    2.2968 C   0  0  0  0  0  0  0  0  0  0  0  0
   -4.0744   -3.7675    1.8926 C   0  0  0  0  0  0  0  0  0  0  0  0
   -3.2987   -3.5590    0.7863 C   0  0  0  0  0  0  0  0  0  0  0  0
   -3.4086   -2.3405    0.1321 C   0  0  0  0  0  0  0  0  0  0  0  0
   -4.2599   -1.3236    0.5375 C   0  0  0  0  0  0  0  0  0  0  0  0
   -2.0325   -0.0177   -1.2534 C   0  0  0  0  0  0  0  0  0  0  0  0
   -1.2535    0.0838   -2.3808 C   0  0  0  0  0  0  0  0  0  0  0  0
    0.1267    0.1469   -2.4962 C   0  0  0  0  0  0  0  0  0  0  0  0
    1.1228    0.1279   -1.5415 C   0  0  0  0  0  0  0  0  0  0  0  0
    2.4248    0.2078   -1.9824 C   0  0  0  0  0  0  0  0  0  0  0  0
    3.6279    0.2144   -1.3069 C   0  0  0  0  0  0  0  0  0  0  0  0
    3.9576    0.1439    0.0455 C   0  0  0  0  0  0  0  0  0  0  0  0
    3.8797   -0.8636    2.5348 H   0  0  0  0  0  0  0  0  0  0  0  0
    3.9650    0.9463    2.8944 H   0  0  0  0  0  0  0  0  0  0  0  0
    4.9489   -0.2356    3.8124 H   0  0  0  0  0  0  0  0  0  0  0  0
    5.9499   -2.0509    1.6349 H   0  0  0  0  0  0  0  0  0  0  0  0
    7.4294   -1.0950    1.4105 H   0  0  0  0  0  0  0  0  0  0  0  0
    6.8075   -1.3237    3.1004 H   0  0  0  0  0  0  0  0  0  0  0  0
    6.9077    1.2525    3.2514 H   0  0  0  0  0  0  0  0  0  0  0  0
    7.5349    1.1501    1.5977 H   0  0  0  0  0  0  0  0  0  0  0  0
    6.0496    2.1964    1.9357 H   0  0  0  0  0  0  0  0  0  0  0  0
    7.2840    0.2948   -0.2361 H   0  0  0  0  0  0  0  0  0  0  0  0
    6.6636    0.4201   -2.6542 H   0  0  0  0  0  0  0  0  0  0  0  0
   -3.5857    0.1385   -4.7922 H   0  0  0  0  0  0  0  0  0  0  0  0
   -5.0089   -0.0445   -2.7730 H   0  0  0  0  0  0  0  0  0  0  0  0
   -4.3389    2.1222   -1.6091 H   0  0  0  0  0  0  0  0  0  0  0  0
   -5.6919    4.0770   -1.2071 H   0  0  0  0  0  0  0  0  0  0  0  0
   -7.2752    4.1400    0.7217 H   0  0  0  0  0  0  0  0  0  0  0  0
   -7.4320    2.2114    2.1722 H   0  0  0  0  0  0  0  0  0  0  0  0
   -5.5534   -2.9104    3.1868 H   0  0  0  0  0  0  0  0  0  0  0  0
   -4.0230   -4.6858    2.4250 H   0  0  0  0  0  0  0  0  0  0  0  0
   -2.6002   -4.3197    0.4063 H   0  0  0  0  0  0  0  0  0  0  0  0
   -2.7670   -2.2422   -0.7469 H   0  0  0  0  0  0  0  0  0  0  0  0
   -1.5675   -0.0590   -0.2826 H   0  0  0  0  0  0  0  0  0  0  0  0
    0.9034    0.0531   -0.4740 H   0  0  0  0  0  0  0  0  0  0  0  0
    3.1933    0.0669    0.7945 H   0  0  0  0  0  0  0  0  0  0  0  0
  1  2  1  0
  2  3  1  0
  2  4  1  0
  2  5  1  0
  5  6  2  0
  6  7  1  0
  7  8  2  0
  8  9  1  0
  9 10  1  0
 10 11  2  0
 11 12  1  0
 12 13  1  0
 13 14  1  0
 14 15  2  0
 15 16  1  0
 16 17  2  0
 17 18  1  0
 18 19  1  0
 19 20  2  0
 20 21  1  0
 21 22  2  0
 22 23  1  0
 23 24  2  0
 24 25  1  0
 25 26  1  0
 26 27  2  0
 27 28  1  0
 28 29  2  0
 29 30  1  0
 30 31  2  0
 17 32  1  0
 32 33  2  0
 33 34  1  0
 34 35  1  0
 35 36  2  0
 36 37  1  0
 37 38  2  0
 38  5  1  0
 37  8  1  0
 36 10  1  0
 34 12  2  0
 33 14  1  0
 31 18  1  0
 24 19  1  0
 31 26  1  0
  1 39  1  0
  1 40  1  0
  1 41  1  0
  3 42  1  0
  3 43  1  0
  3 44  1  0
  4 45  1  0
  4 46  1  0
  4 47  1  0
  6 48  1  0
  7 49  1  0
 15 50  1  0
 16 51  1  0
 20 52  1  0
 21 53  1  0
 22 54  1  0
 23 55  1  0
 27 56  1  0
 28 57  1  0
 29 58  1  0
 30 59  1  0
 32 60  1  0
 35 61  1  0
 38 62  1  0
M  END
