
     RDKit          3D

 18 19  0  0  0  0  0  0  0  0999 V2000
    1.0132    2.6963   -0.4927 O   0  0  0  0  0  0  0  0  0  0  0  0
    1.0881    1.4495   -0.3429 C   0  0  0  0  0  0  0  0  0  0  0  0
    2.3848    0.7828   -0.3469 C   0  0  0  0  0  0  0  0  0  0  0  0
    3.8598    1.7003   -0.5597 Cl  0  0  0  0  0  0  0  0  0  0  0  0
    2.4387   -0.5442   -0.1857 C   0  0  0  0  0  0  0  0  0  0  0  0
    4.0105   -1.2924   -0.1981 Cl  0  0  0  0  0  0  0  0  0  0  0  0
    1.2314   -1.3463   -0.0052 C   0  0  0  0  0  0  0  0  0  0  0  0
    1.2717   -2.5948    0.1471 O   0  0  0  0  0  0  0  0  0  0  0  0
   -0.0951   -0.7107    0.0047 C   0  0  0  0  0  0  0  0  0  0  0  0
   -1.2496   -1.4607    0.1752 C   0  0  0  0  0  0  0  0  0  0  0  0
   -2.4653   -0.8087    0.1757 C   0  0  0  0  0  0  0  0  0  0  0  0
   -2.4984    0.5575    0.0082 C   0  0  0  0  0  0  0  0  0  0  0  0
   -1.3557    1.3175   -0.1628 C   0  0  0  0  0  0  0  0  0  0  0  0
   -0.1294    0.6674   -0.1642 C   0  0  0  0  0  0  0  0  0  0  0  0
   -1.1836   -2.5165    0.3019 H   0  0  0  0  0  0  0  0  0  0  0  0
   -3.4156   -1.3466    0.3061 H   0  0  0  0  0  0  0  0  0  0  0  0
   -3.4542    1.0697    0.0086 H   0  0  0  0  0  0  0  0  0  0  0  0
   -1.4514    2.3798   -0.2883 H   0  0  0  0  0  0  0  0  0  0  0  0
  1  2  2  0
  2  3  1  0
  3  4  1  0
  3  5  2  0
  5  6  1  0
  5  7  1  0
  7  8  2  0
  7  9  1  0
  9 10  2  0
 10 11  1  0
 11 12  2  0
 12 13  1  0
 13 14  2  0
 14  2  1  0
 14  9  1  0
 10 15  1  0
 11 16  1  0
 12 17  1  0
 13 18  1  0
M  END
