
     RDKit          3D

 74 80  0  0  0  0  0  0  0  0999 V2000
    9.7821    2.0454    0.2066 C   0  0  0  0  0  0  0  0  0  0  0  0
    9.2002    1.0041   -0.6934 C   0  0  0  0  0  0  0  0  0  0  0  0
    8.8051   -0.2642    0.0490 C   0  0  0  0  0  0  0  0  0  0  0  0
    7.7889    0.0898    1.0732 C   0  0  0  0  0  0  0  0  0  0  0  0
    7.2666   -1.0269    1.8881 C   0  0  0  0  0  0  0  0  0  0  0  0
    6.5007   -2.0981    1.2089 C   0  0  0  0  0  0  0  0  0  0  0  0
    5.2641   -1.6857    0.5974 N   0  0  0  0  0  0  0  0  0  0  0  0
    5.0853   -1.2579   -0.7285 C   0  0  0  0  0  0  0  0  0  0  0  0
    6.0699   -1.2262   -1.5011 O   0  0  0  0  0  0  0  0  0  0  0  0
    3.7754   -0.8423   -1.2541 C   0  0  0  0  0  0  0  0  0  0  0  0
    3.6809   -0.4570   -2.5732 C   0  0  0  0  0  0  0  0  0  0  0  0
    2.4385   -0.0952   -3.0448 C   0  0  0  0  0  0  0  0  0  0  0  0
    1.2935   -0.1025   -2.2529 C   0  0  0  0  0  0  0  0  0  0  0  0
    1.3950   -0.4831   -0.9409 C   0  0  0  0  0  0  0  0  0  0  0  0
    0.2784   -0.5028   -0.1780 C   0  0  0  0  0  0  0  0  0  0  0  0
   -1.0486    0.0023   -0.5130 C   0  0  0  0  0  0  0  0  0  0  0  0
   -1.4940    0.9912   -1.3104 C   0  0  0  0  0  0  0  0  0  0  0  0
   -2.8157    1.2646   -1.3224 C   0  0  0  0  0  0  0  0  0  0  0  0
   -3.6218    0.5162   -0.5165 C   0  0  0  0  0  0  0  0  0  0  0  0
   -5.0912    0.6210   -0.3525 C   0  0  0  0  0  0  0  0  0  0  0  0
   -5.9062    1.5073   -0.9972 C   0  0  0  0  0  0  0  0  0  0  0  0
   -7.1924    1.2646   -0.5565 C   0  0  0  0  0  0  0  0  0  0  0  0
   -8.4079    1.9712   -0.9715 C   0  0  0  0  0  0  0  0  0  0  0  0
   -9.6436    1.6440   -0.4644 C   0  0  0  0  0  0  0  0  0  0  0  0
  -10.7920    2.3290   -0.8720 C   0  0  0  0  0  0  0  0  0  0  0  0
  -10.7218    3.3503   -1.7917 C   0  0  0  0  0  0  0  0  0  0  0  0
   -9.4855    3.6790   -2.3002 C   0  0  0  0  0  0  0  0  0  0  0  0
   -8.3367    2.9926   -1.8915 C   0  0  0  0  0  0  0  0  0  0  0  0
   -7.0945    0.2587    0.3201 N   0  0  0  0  0  0  0  0  0  0  0  0
   -5.8330   -0.1569    0.4685 N   0  0  0  0  0  0  0  0  0  0  0  0
   -5.3587   -1.1942    1.3071 C   0  0  0  0  0  0  0  0  0  0  0  0
   -4.9317   -2.3928    0.8018 C   0  0  0  0  0  0  0  0  0  0  0  0
   -4.4650   -3.4132    1.6279 C   0  0  0  0  0  0  0  0  0  0  0  0
   -4.4353   -3.1997    3.0070 C   0  0  0  0  0  0  0  0  0  0  0  0
   -4.8609   -2.0023    3.5237 C   0  0  0  0  0  0  0  0  0  0  0  0
   -5.3235   -0.9992    2.6646 C   0  0  0  0  0  0  0  0  0  0  0  0
   -2.5234   -0.5457    0.2345 S   0  0  0  0  0  0  0  0  0  0  0  0
    0.4485   -0.9351    1.1591 C   0  0  0  0  0  0  0  0  0  0  0  0
    1.6609   -1.2995    1.6350 C   0  0  0  0  0  0  0  0  0  0  0  0
    2.7879   -1.2723    0.8576 C   0  0  0  0  0  0  0  0  0  0  0  0
    2.6553   -0.8559   -0.4554 C   0  0  0  0  0  0  0  0  0  0  0  0
    4.0658   -1.6893    1.4097 C   0  0  0  0  0  0  0  0  0  0  0  0
    4.1041   -2.0511    2.6035 O   0  0  0  0  0  0  0  0  0  0  0  0
   10.4842    2.6638   -0.3922 H   0  0  0  0  0  0  0  0  0  0  0  0
    9.0088    2.7546    0.5850 H   0  0  0  0  0  0  0  0  0  0  0  0
   10.3917    1.6146    1.0381 H   0  0  0  0  0  0  0  0  0  0  0  0
    8.3220    1.4354   -1.2122 H   0  0  0  0  0  0  0  0  0  0  0  0
    9.9415    0.7753   -1.4980 H   0  0  0  0  0  0  0  0  0  0  0  0
    9.7554   -0.5322    0.6259 H   0  0  0  0  0  0  0  0  0  0  0  0
    8.5641   -1.0194   -0.6816 H   0  0  0  0  0  0  0  0  0  0  0  0
    8.2320    0.9053    1.7005 H   0  0  0  0  0  0  0  0  0  0  0  0
    6.9020    0.6011    0.5885 H   0  0  0  0  0  0  0  0  0  0  0  0
    6.6048   -0.6446    2.7250 H   0  0  0  0  0  0  0  0  0  0  0  0
    8.1449   -1.4474    2.4671 H   0  0  0  0  0  0  0  0  0  0  0  0
    7.1084   -2.7068    0.5007 H   0  0  0  0  0  0  0  0  0  0  0  0
    6.2276   -2.8476    2.0129 H   0  0  0  0  0  0  0  0  0  0  0  0
    4.5625   -0.4376   -3.2292 H   0  0  0  0  0  0  0  0  0  0  0  0
    2.3491    0.2093   -4.0808 H   0  0  0  0  0  0  0  0  0  0  0  0
    0.3396    0.1410   -2.6854 H   0  0  0  0  0  0  0  0  0  0  0  0
   -0.8173    1.6383   -1.9324 H   0  0  0  0  0  0  0  0  0  0  0  0
   -3.2809    2.0616   -1.9498 H   0  0  0  0  0  0  0  0  0  0  0  0
   -5.6190    2.2687   -1.7239 H   0  0  0  0  0  0  0  0  0  0  0  0
   -9.6863    0.8378    0.2593 H   0  0  0  0  0  0  0  0  0  0  0  0
  -11.7462    2.0443   -0.4521 H   0  0  0  0  0  0  0  0  0  0  0  0
  -11.6076    3.8983   -2.1235 H   0  0  0  0  0  0  0  0  0  0  0  0
   -9.4460    4.4823   -3.0209 H   0  0  0  0  0  0  0  0  0  0  0  0
   -7.3916    3.2799   -2.3121 H   0  0  0  0  0  0  0  0  0  0  0  0
   -4.9560   -2.5519   -0.2518 H   0  0  0  0  0  0  0  0  0  0  0  0
   -4.1210   -4.3696    1.2644 H   0  0  0  0  0  0  0  0  0  0  0  0
   -4.0664   -4.0092    3.6466 H   0  0  0  0  0  0  0  0  0  0  0  0
   -4.8298   -1.8585    4.5873 H   0  0  0  0  0  0  0  0  0  0  0  0
   -5.6420   -0.0851    3.1369 H   0  0  0  0  0  0  0  0  0  0  0  0
   -0.4322   -0.9604    1.7781 H   0  0  0  0  0  0  0  0  0  0  0  0
    1.7401   -1.6234    2.6666 H   0  0  0  0  0  0  0  0  0  0  0  0
  1  2  1  0
  2  3  1  0
  3  4  1  0
  4  5  1  0
  5  6  1  0
  6  7  1  0
  7  8  1  0
  8  9  2  0
  8 10  1  0
 10 11  1  0
 11 12  2  0
 12 13  1  0
 13 14  2  0
 14 15  1  0
 15 16  1  0
 16 17  2  0
 17 18  1  0
 18 19  2  0
 19 20  1  0
 20 21  2  0
 21 22  1  0
 22 23  1  0
 23 24  2  0
 24 25  1  0
 25 26  2  0
 26 27  1  0
 27 28  2  0
 22 29  2  0
 29 30  1  0
 30 31  1  0
 31 32  2  0
 32 33  1  0
 33 34  2  0
 34 35  1  0
 35 36  2  0
 19 37  1  0
 15 38  2  0
 38 39  1  0
 39 40  2  0
 40 41  1  0
 40 42  1  0
 42 43  2  0
 42  7  1  0
 41 10  2  0
 41 14  1  0
 37 16  1  0
 30 20  1  0
 36 31  1  0
 28 23  1  0
  1 44  1  0
  1 45  1  0
  1 46  1  0
  2 47  1  0
  2 48  1  0
  3 49  1  0
  3 50  1  0
  4 51  1  0
  4 52  1  0
  5 53  1  0
  5 54  1  0
  6 55  1  0
  6 56  1  0
 11 57  1  0
 12 58  1  0
 13 59  1  0
 17 60  1  0
 18 61  1  0
 21 62  1  0
 24 63  1  0
 25 64  1  0
 26 65  1  0
 27 66  1  0
 28 67  1  0
 32 68  1  0
 33 69  1  0
 34 70  1  0
 35 71  1  0
 36 72  1  0
 38 73  1  0
 39 74  1  0
M  END
