
     RDKit          3D

 36 38  0  0  0  0  0  0  0  0999 V2000
   -6.0810   -1.4692    0.1919 C   0  0  0  0  0  0  0  0  0  0  0  0
   -5.1558   -0.4244    0.2208 O   0  0  0  0  0  0  0  0  0  0  0  0
   -3.7798   -0.5933    0.1603 C   0  0  0  0  0  0  0  0  0  0  0  0
   -3.2240   -1.8695    0.0632 C   0  0  0  0  0  0  0  0  0  0  0  0
   -1.8527   -1.9948    0.0055 C   0  0  0  0  0  0  0  0  0  0  0  0
   -1.0360   -0.8858    0.0422 C   0  0  0  0  0  0  0  0  0  0  0  0
    0.4160   -1.0533   -0.0210 C   0  0  0  0  0  0  0  0  0  0  0  0
    1.0928   -2.2322   -0.1168 C   0  0  0  0  0  0  0  0  0  0  0  0
    2.4074   -1.9246   -0.1465 N   0  0  0  0  0  0  0  0  0  0  0  0
    2.5179   -0.5916   -0.0703 C   0  0  0  0  0  0  0  0  0  0  0  0
    3.7993    0.1374   -0.0734 C   0  0  0  0  0  0  0  0  0  0  0  0
    3.8015    1.5178    0.0098 C   0  0  0  0  0  0  0  0  0  0  0  0
    4.9859    2.2331    0.0094 C   0  0  0  0  0  0  0  0  0  0  0  0
    6.1678    1.5235   -0.0768 C   0  0  0  0  0  0  0  0  0  0  0  0
    6.2010    0.1434   -0.1612 C   0  0  0  0  0  0  0  0  0  0  0  0
    4.9991   -0.5372   -0.1581 C   0  0  0  0  0  0  0  0  0  0  0  0
    1.3190   -0.1071    0.0028 O   0  0  0  0  0  0  0  0  0  0  0  0
   -1.6079    0.3726    0.1389 C   0  0  0  0  0  0  0  0  0  0  0  0
   -2.9769    0.5262    0.1982 C   0  0  0  0  0  0  0  0  0  0  0  0
   -3.5629    1.7566    0.2937 O   0  0  0  0  0  0  0  0  0  0  0  0
   -2.8476    2.9778    0.3409 C   0  0  0  0  0  0  0  0  0  0  0  0
   -6.3170   -1.7045   -0.8856 H   0  0  0  0  0  0  0  0  0  0  0  0
   -5.7711   -2.3812    0.7129 H   0  0  0  0  0  0  0  0  0  0  0  0
   -7.0487   -1.0592    0.5944 H   0  0  0  0  0  0  0  0  0  0  0  0
   -3.8762   -2.7465    0.0344 H   0  0  0  0  0  0  0  0  0  0  0  0
   -1.4067   -2.9991   -0.0713 H   0  0  0  0  0  0  0  0  0  0  0  0
    0.6689   -3.2284   -0.1613 H   0  0  0  0  0  0  0  0  0  0  0  0
    2.8255    2.0187    0.0759 H   0  0  0  0  0  0  0  0  0  0  0  0
    4.9888    3.3091    0.0742 H   0  0  0  0  0  0  0  0  0  0  0  0
    7.1150    2.0773   -0.0782 H   0  0  0  0  0  0  0  0  0  0  0  0
    7.1611   -0.3301   -0.2251 H   0  0  0  0  0  0  0  0  0  0  0  0
    5.0237   -1.6038   -0.2234 H   0  0  0  0  0  0  0  0  0  0  0  0
   -0.9589    1.2355    0.1670 H   0  0  0  0  0  0  0  0  0  0  0  0
   -2.1571    3.0926   -0.5146 H   0  0  0  0  0  0  0  0  0  0  0  0
   -2.2745    2.9842    1.2907 H   0  0  0  0  0  0  0  0  0  0  0  0
   -3.5556    3.8298    0.3893 H   0  0  0  0  0  0  0  0  0  0  0  0
  1  2  1  0
  2  3  1  0
  3  4  2  0
  4  5  1  0
  5  6  2  0
  6  7  1  0
  7  8  2  0
  8  9  1  0
  9 10  2  0
 10 11  1  0
 11 12  2  0
 12 13  1  0
 13 14  2  0
 14 15  1  0
 15 16  2  0
 10 17  1  0
  6 18  1  0
 18 19  2  0
 19 20  1  0
 20 21  1  0
 19  3  1  0
 17  7  1  0
 16 11  1  0
  1 22  1  0
  1 23  1  0
  1 24  1  0
  4 25  1  0
  5 26  1  0
  8 27  1  0
 12 28  1  0
 13 29  1  0
 14 30  1  0
 15 31  1  0
 16 32  1  0
 18 33  1  0
 21 34  1  0
 21 35  1  0
 21 36  1  0
M  END
