
     RDKit          3D

 49 53  0  0  0  0  0  0  0  0999 V2000
    7.8928    0.9459   -0.8936 C   0  0  0  0  0  0  0  0  0  0  0  0
    7.1883   -0.1952   -0.3954 N   0  0  0  0  0  0  0  0  0  0  0  0
    7.9332   -1.3570    0.0472 C   0  0  0  0  0  0  0  0  0  0  0  0
    5.7684   -0.1884   -0.3350 C   0  0  0  0  0  0  0  0  0  0  0  0
    5.0833   -1.2945    0.1482 C   0  0  0  0  0  0  0  0  0  0  0  0
    3.7051   -1.2711    0.1999 C   0  0  0  0  0  0  0  0  0  0  0  0
    2.9546   -0.1920   -0.2084 C   0  0  0  0  0  0  0  0  0  0  0  0
    1.5082   -0.2823   -0.1074 C   0  0  0  0  0  0  0  0  0  0  0  0
    0.6627    0.6681   -0.4588 C   0  0  0  0  0  0  0  0  0  0  0  0
   -0.7973    0.4813   -0.3177 C   0  0  0  0  0  0  0  0  0  0  0  0
   -1.4401   -0.5946    0.1513 N   0  0  0  0  0  0  0  0  0  0  0  0
   -2.7896   -0.4104    0.1355 C   0  0  0  0  0  0  0  0  0  0  0  0
   -3.8548   -1.1892    0.5014 C   0  0  0  0  0  0  0  0  0  0  0  0
   -3.6660   -2.4445    1.0072 C   0  0  0  0  0  0  0  0  0  0  0  0
   -4.7199   -3.2359    1.3779 C   0  0  0  0  0  0  0  0  0  0  0  0
   -5.9847   -2.7208    1.2227 C   0  0  0  0  0  0  0  0  0  0  0  0
   -6.2220   -1.4435    0.7100 C   0  0  0  0  0  0  0  0  0  0  0  0
   -5.1315   -0.6941    0.3549 C   0  0  0  0  0  0  0  0  0  0  0  0
   -5.3127    0.5902   -0.1630 C   0  0  0  0  0  0  0  0  0  0  0  0
   -6.5815    1.1210   -0.3245 C   0  0  0  0  0  0  0  0  0  0  0  0
   -6.7276    2.4069   -0.8448 C   0  0  0  0  0  0  0  0  0  0  0  0
   -5.6377    3.1706   -1.2056 C   0  0  0  0  0  0  0  0  0  0  0  0
   -4.3669    2.6590   -1.0521 C   0  0  0  0  0  0  0  0  0  0  0  0
   -4.2277    1.3731   -0.5315 C   0  0  0  0  0  0  0  0  0  0  0  0
   -2.9558    0.8667   -0.3802 C   0  0  0  0  0  0  0  0  0  0  0  0
   -1.7373    1.3805   -0.6444 N   0  0  0  0  0  0  0  0  0  0  0  0
    3.6325    0.9026   -0.6866 C   0  0  0  0  0  0  0  0  0  0  0  0
    5.0262    0.8953   -0.7456 C   0  0  0  0  0  0  0  0  0  0  0  0
    7.8101    0.9836   -2.0008 H   0  0  0  0  0  0  0  0  0  0  0  0
    7.4789    1.8970   -0.4787 H   0  0  0  0  0  0  0  0  0  0  0  0
    8.9715    0.9479   -0.6147 H   0  0  0  0  0  0  0  0  0  0  0  0
    8.9991   -1.1645    0.1627 H   0  0  0  0  0  0  0  0  0  0  0  0
    7.5445   -1.5832    1.0827 H   0  0  0  0  0  0  0  0  0  0  0  0
    7.6929   -2.2540   -0.5681 H   0  0  0  0  0  0  0  0  0  0  0  0
    5.6568   -2.1712    0.4816 H   0  0  0  0  0  0  0  0  0  0  0  0
    3.2222   -2.1741    0.5911 H   0  0  0  0  0  0  0  0  0  0  0  0
    1.0436   -1.1961    0.2870 H   0  0  0  0  0  0  0  0  0  0  0  0
    1.0690    1.5865   -0.8525 H   0  0  0  0  0  0  0  0  0  0  0  0
   -2.6395   -2.7934    1.1048 H   0  0  0  0  0  0  0  0  0  0  0  0
   -4.5688   -4.2366    1.7812 H   0  0  0  0  0  0  0  0  0  0  0  0
   -6.8210   -3.3636    1.5229 H   0  0  0  0  0  0  0  0  0  0  0  0
   -7.2192   -1.1025    0.6143 H   0  0  0  0  0  0  0  0  0  0  0  0
   -7.4836    0.5985   -0.0707 H   0  0  0  0  0  0  0  0  0  0  0  0
   -7.7290    2.8138   -0.9673 H   0  0  0  0  0  0  0  0  0  0  0  0
   -5.8021    4.1749   -1.6096 H   0  0  0  0  0  0  0  0  0  0  0  0
   -3.4867    3.2263   -1.3232 H   0  0  0  0  0  0  0  0  0  0  0  0
   -1.5704    2.3364   -1.0432 H   0  0  0  0  0  0  0  0  0  0  0  0
    3.0802    1.7618   -1.0138 H   0  0  0  0  0  0  0  0  0  0  0  0
    5.5490    1.7645   -1.1248 H   0  0  0  0  0  0  0  0  0  0  0  0
  1  2  1  0
  2  3  1  0
  2  4  1  0
  4  5  2  0
  5  6  1  0
  6  7  2  0
  7  8  1  0
  8  9  2  0
  9 10  1  0
 10 11  2  0
 11 12  1  0
 12 13  2  0
 13 14  1  0
 14 15  2  0
 15 16  1  0
 16 17  2  0
 17 18  1  0
 18 19  2  0
 19 20  1  0
 20 21  2  0
 21 22  1  0
 22 23  2  0
 23 24  1  0
 24 25  2  0
 25 26  1  0
  7 27  1  0
 27 28  2  0
 28  4  1  0
 26 10  1  0
 25 12  1  0
 18 13  1  0
 24 19  1  0
  1 29  1  0
  1 30  1  0
  1 31  1  0
  3 32  1  0
  3 33  1  0
  3 34  1  0
  5 35  1  0
  6 36  1  0
  8 37  1  0
  9 38  1  0
 14 39  1  0
 15 40  1  0
 16 41  1  0
 17 42  1  0
 20 43  1  0
 21 44  1  0
 22 45  1  0
 23 46  1  0
 26 47  1  0
 27 48  1  0
 28 49  1  0
M  END
