
     RDKit          3D

 52 56  0  0  0  0  0  0  0  0999 V2000
    2.1377    0.1764    0.0441 C   0  0  0  0  0  0  0  0  0  0  0  0
    2.9209    0.5545   -0.9447 C   0  0  0  0  0  0  0  0  0  0  0  0
    4.3796    0.6707   -0.7512 C   0  0  0  0  0  0  0  0  0  0  0  0
    5.1468    1.0556   -1.7701 N   0  0  0  0  0  0  0  0  0  0  0  0
    6.4999    1.1760   -1.6340 C   0  0  0  0  0  0  0  0  0  0  0  0
    7.0835    0.8951   -0.4232 C   0  0  0  0  0  0  0  0  0  0  0  0
    8.4669    1.0048   -0.2380 C   0  0  0  0  0  0  0  0  0  0  0  0
    9.0216    0.7152    0.9912 C   0  0  0  0  0  0  0  0  0  0  0  0
    8.2239    0.3163    2.0462 C   0  0  0  0  0  0  0  0  0  0  0  0
    6.8700    0.2195    1.8279 C   0  0  0  0  0  0  0  0  0  0  0  0
    6.2908    0.5004    0.6191 C   0  0  0  0  0  0  0  0  0  0  0  0
    4.9447    0.3980    0.4235 N   0  0  0  0  0  0  0  0  0  0  0  0
    0.6964    0.0491   -0.1042 C   0  0  0  0  0  0  0  0  0  0  0  0
    0.0193    0.3000   -1.2489 C   0  0  0  0  0  0  0  0  0  0  0  0
   -1.3827    0.1531   -1.3133 C   0  0  0  0  0  0  0  0  0  0  0  0
   -2.1225   -0.2370   -0.2663 C   0  0  0  0  0  0  0  0  0  0  0  0
   -3.5440   -0.4413   -0.1629 N   0  0  0  0  0  0  0  0  0  0  0  0
   -4.2386   -1.1451   -1.1649 C   0  0  0  0  0  0  0  0  0  0  0  0
   -4.1841   -0.7657   -2.4648 C   0  0  0  0  0  0  0  0  0  0  0  0
   -4.7512   -1.5567   -3.4527 C   0  0  0  0  0  0  0  0  0  0  0  0
   -5.3735   -2.7278   -3.1163 C   0  0  0  0  0  0  0  0  0  0  0  0
   -5.4388   -3.1250   -1.8035 C   0  0  0  0  0  0  0  0  0  0  0  0
   -4.8754   -2.3418   -0.8320 C   0  0  0  0  0  0  0  0  0  0  0  0
   -4.2008    0.2278    0.9191 C   0  0  0  0  0  0  0  0  0  0  0  0
   -5.1013   -0.3138    1.7412 C   0  0  0  0  0  0  0  0  0  0  0  0
   -5.7156    0.4193    2.7888 C   0  0  0  0  0  0  0  0  0  0  0  0
   -5.3922    1.7302    2.9870 C   0  0  0  0  0  0  0  0  0  0  0  0
   -4.4640    2.3056    2.1477 C   0  0  0  0  0  0  0  0  0  0  0  0
   -3.8790    1.5829    1.1389 C   0  0  0  0  0  0  0  0  0  0  0  0
   -1.3901   -0.4936    0.9212 C   0  0  0  0  0  0  0  0  0  0  0  0
   -0.0298   -0.3547    0.9965 C   0  0  0  0  0  0  0  0  0  0  0  0
    2.6288   -0.0398    0.9927 H   0  0  0  0  0  0  0  0  0  0  0  0
    2.4948    0.7776   -1.8913 H   0  0  0  0  0  0  0  0  0  0  0  0
    7.1082    1.4876   -2.4643 H   0  0  0  0  0  0  0  0  0  0  0  0
    9.0750    1.3222   -1.0884 H   0  0  0  0  0  0  0  0  0  0  0  0
   10.0861    0.7973    1.1416 H   0  0  0  0  0  0  0  0  0  0  0  0
    8.6980    0.0969    2.9990 H   0  0  0  0  0  0  0  0  0  0  0  0
    6.2254   -0.0916    2.6415 H   0  0  0  0  0  0  0  0  0  0  0  0
    0.5230    0.6177   -2.1426 H   0  0  0  0  0  0  0  0  0  0  0  0
   -1.8550    0.3718   -2.2452 H   0  0  0  0  0  0  0  0  0  0  0  0
   -3.7620    0.1790   -2.7824 H   0  0  0  0  0  0  0  0  0  0  0  0
   -4.6988   -1.2456   -4.4767 H   0  0  0  0  0  0  0  0  0  0  0  0
   -5.8210   -3.3496   -3.9001 H   0  0  0  0  0  0  0  0  0  0  0  0
   -5.9425   -4.0677   -1.5445 H   0  0  0  0  0  0  0  0  0  0  0  0
   -4.9272   -2.7327    0.1709 H   0  0  0  0  0  0  0  0  0  0  0  0
   -5.3880   -1.3478    1.6320 H   0  0  0  0  0  0  0  0  0  0  0  0
   -6.4342   -0.0761    3.4166 H   0  0  0  0  0  0  0  0  0  0  0  0
   -5.8266    2.3454    3.7705 H   0  0  0  0  0  0  0  0  0  0  0  0
   -4.2091    3.3545    2.3109 H   0  0  0  0  0  0  0  0  0  0  0  0
   -3.1613    2.0218    0.4873 H   0  0  0  0  0  0  0  0  0  0  0  0
   -1.9502   -0.8087    1.7831 H   0  0  0  0  0  0  0  0  0  0  0  0
    0.5183   -0.5602    1.9319 H   0  0  0  0  0  0  0  0  0  0  0  0
  1  2  2  0
  2  3  1  0
  3  4  2  0
  4  5  1  0
  5  6  2  0
  6  7  1  0
  7  8  2  0
  8  9  1  0
  9 10  2  0
 10 11  1  0
 11 12  2  0
  1 13  1  0
 13 14  2  0
 14 15  1  0
 15 16  2  0
 16 17  1  0
 17 18  1  0
 18 19  2  0
 19 20  1  0
 20 21  2  0
 21 22  1  0
 22 23  2  0
 17 24  1  0
 24 25  2  0
 25 26  1  0
 26 27  2  0
 27 28  1  0
 28 29  2  0
 16 30  1  0
 30 31  2  0
 12  3  1  0
 31 13  1  0
 11  6  1  0
 23 18  1  0
 29 24  1  0
  1 32  1  0
  2 33  1  0
  5 34  1  0
  7 35  1  0
  8 36  1  0
  9 37  1  0
 10 38  1  0
 14 39  1  0
 15 40  1  0
 19 41  1  0
 20 42  1  0
 21 43  1  0
 22 44  1  0
 23 45  1  0
 25 46  1  0
 26 47  1  0
 27 48  1  0
 28 49  1  0
 29 50  1  0
 30 51  1  0
 31 52  1  0
M  END
