
     RDKit          3D

 44 48  0  0  0  0  0  0  0  0999 V2000
    3.8870   -2.2075    0.5590 C   0  0  0  0  0  0  0  0  0  0  0  0
    3.4480   -1.4113   -0.6310 C   0  0  0  0  0  0  0  0  0  0  0  0
    2.6883   -0.2401   -0.2961 N   0  0  0  0  0  0  0  0  0  0  0  0
    3.1497    1.0087   -0.0529 C   0  0  0  0  0  0  0  0  0  0  0  0
    4.4202    1.5604   -0.0409 C   0  0  0  0  0  0  0  0  0  0  0  0
    4.6466    2.8961    0.2431 C   0  0  0  0  0  0  0  0  0  0  0  0
    3.5456    3.6794    0.5202 C   0  0  0  0  0  0  0  0  0  0  0  0
    2.2583    3.1912    0.5242 C   0  0  0  0  0  0  0  0  0  0  0  0
    2.0928    1.8481    0.2330 C   0  0  0  0  0  0  0  0  0  0  0  0
    0.9481    1.0802    0.1606 C   0  0  0  0  0  0  0  0  0  0  0  0
   -0.3977    1.3231    0.3364 C   0  0  0  0  0  0  0  0  0  0  0  0
   -1.3272    0.2967    0.1858 C   0  0  0  0  0  0  0  0  0  0  0  0
   -0.9399   -0.9850   -0.1409 C   0  0  0  0  0  0  0  0  0  0  0  0
    0.4109   -1.2194   -0.3153 C   0  0  0  0  0  0  0  0  0  0  0  0
    1.3490   -0.2087   -0.1690 C   0  0  0  0  0  0  0  0  0  0  0  0
   -2.0442   -1.8066   -0.2292 C   0  0  0  0  0  0  0  0  0  0  0  0
   -2.2558   -3.1380   -0.5136 C   0  0  0  0  0  0  0  0  0  0  0  0
   -3.5070   -3.7154   -0.5331 C   0  0  0  0  0  0  0  0  0  0  0  0
   -4.5749   -2.8777   -0.2466 C   0  0  0  0  0  0  0  0  0  0  0  0
   -4.3940   -1.5513    0.0394 C   0  0  0  0  0  0  0  0  0  0  0  0
   -3.1433   -0.9889    0.0556 C   0  0  0  0  0  0  0  0  0  0  0  0
   -2.6663    0.2588    0.2971 N   0  0  0  0  0  0  0  0  0  0  0  0
   -3.4945    1.3978    0.6308 C   0  0  0  0  0  0  0  0  0  0  0  0
   -3.9375    2.1514   -0.6198 C   0  0  0  0  0  0  0  0  0  0  0  0
    3.7010   -3.3071    0.3810 H   0  0  0  0  0  0  0  0  0  0  0  0
    3.2894   -1.9769    1.4817 H   0  0  0  0  0  0  0  0  0  0  0  0
    4.9802   -2.1299    0.7535 H   0  0  0  0  0  0  0  0  0  0  0  0
    4.3806   -1.0750   -1.1652 H   0  0  0  0  0  0  0  0  0  0  0  0
    2.9184   -2.0781   -1.3479 H   0  0  0  0  0  0  0  0  0  0  0  0
    5.2781    0.9199   -0.2637 H   0  0  0  0  0  0  0  0  0  0  0  0
    5.6498    3.3301    0.2522 H   0  0  0  0  0  0  0  0  0  0  0  0
    3.6454    4.7476    0.7547 H   0  0  0  0  0  0  0  0  0  0  0  0
    1.3849    3.7951    0.7400 H   0  0  0  0  0  0  0  0  0  0  0  0
   -0.6890    2.3226    0.5902 H   0  0  0  0  0  0  0  0  0  0  0  0
    0.7055   -2.2378   -0.5737 H   0  0  0  0  0  0  0  0  0  0  0  0
   -1.4058   -3.7637   -0.7323 H   0  0  0  0  0  0  0  0  0  0  0  0
   -3.7016   -4.7556   -0.7527 H   0  0  0  0  0  0  0  0  0  0  0  0
   -5.5579   -3.3138   -0.2579 H   0  0  0  0  0  0  0  0  0  0  0  0
   -5.2437   -0.9370    0.2555 H   0  0  0  0  0  0  0  0  0  0  0  0
   -4.3924    1.0747    1.2184 H   0  0  0  0  0  0  0  0  0  0  0  0
   -2.9543    2.1221    1.2968 H   0  0  0  0  0  0  0  0  0  0  0  0
   -4.0977    3.2049   -0.3223 H   0  0  0  0  0  0  0  0  0  0  0  0
   -3.1591    2.0330   -1.3743 H   0  0  0  0  0  0  0  0  0  0  0  0
   -4.8937    1.6826   -0.9307 H   0  0  0  0  0  0  0  0  0  0  0  0
  1  2  1  0
  2  3  1  0
  3  4  1  0
  4  5  2  0
  5  6  1  0
  6  7  2  0
  7  8  1  0
  8  9  2  0
  9 10  1  0
 10 11  2  0
 11 12  1  0
 12 13  2  0
 13 14  1  0
 14 15  2  0
 13 16  1  0
 16 17  2  0
 17 18  1  0
 18 19  2  0
 19 20  1  0
 20 21  2  0
 21 22  1  0
 22 23  1  0
 23 24  1  0
 15  3  1  0
 21 16  1  0
  9  4  1  0
 15 10  1  0
 22 12  1  0
  1 25  1  0
  1 26  1  0
  1 27  1  0
  2 28  1  0
  2 29  1  0
  5 30  1  0
  6 31  1  0
  7 32  1  0
  8 33  1  0
 11 34  1  0
 14 35  1  0
 17 36  1  0
 18 37  1  0
 19 38  1  0
 20 39  1  0
 23 40  1  0
 23 41  1  0
 24 42  1  0
 24 43  1  0
 24 44  1  0
M  END
