
     RDKit          3D

 36 38  0  0  0  0  0  0  0  0999 V2000
   -3.2296   -1.4150   -1.2304 C   0  0  0  0  0  0  0  0  0  0  0  0
   -2.3125   -1.4304   -0.1066 N   0  0  0  0  0  0  0  0  0  0  0  0
   -2.5114   -2.4443    0.9170 C   0  0  0  0  0  0  0  0  0  0  0  0
   -1.2805   -0.4906   -0.0348 C   0  0  0  0  0  0  0  0  0  0  0  0
    0.0634   -0.8591   -0.0477 C   0  0  0  0  0  0  0  0  0  0  0  0
    1.0787    0.0529    0.0153 C   0  0  0  0  0  0  0  0  0  0  0  0
    2.4896   -0.3173    0.0026 C   0  0  0  0  0  0  0  0  0  0  0  0
    3.4587    0.5102   -0.5516 C   0  0  0  0  0  0  0  0  0  0  0  0
    4.7897    0.1503   -0.5582 C   0  0  0  0  0  0  0  0  0  0  0  0
    5.2231   -1.0411   -0.0186 C   0  0  0  0  0  0  0  0  0  0  0  0
    4.2672   -1.8674    0.5332 C   0  0  0  0  0  0  0  0  0  0  0  0
    2.9355   -1.5079    0.5400 C   0  0  0  0  0  0  0  0  0  0  0  0
    0.7466    1.3833    0.0944 C   0  0  0  0  0  0  0  0  0  0  0  0
   -0.5494    1.8089    0.1113 C   0  0  0  0  0  0  0  0  0  0  0  0
   -0.8197    3.1536    0.1933 C   0  0  0  0  0  0  0  0  0  0  0  0
   -2.1181    3.6119    0.2140 C   0  0  0  0  0  0  0  0  0  0  0  0
   -3.1348    2.7073    0.1518 C   0  0  0  0  0  0  0  0  0  0  0  0
   -2.8525    1.3473    0.0689 C   0  0  0  0  0  0  0  0  0  0  0  0
   -1.5630    0.8560    0.0458 C   0  0  0  0  0  0  0  0  0  0  0  0
   -3.0834   -0.5875   -1.9185 H   0  0  0  0  0  0  0  0  0  0  0  0
   -2.9982   -2.3633   -1.7978 H   0  0  0  0  0  0  0  0  0  0  0  0
   -4.2863   -1.4517   -0.8834 H   0  0  0  0  0  0  0  0  0  0  0  0
   -1.5558   -2.9547    1.1352 H   0  0  0  0  0  0  0  0  0  0  0  0
   -2.9739   -2.0067    1.8311 H   0  0  0  0  0  0  0  0  0  0  0  0
   -3.2117   -3.2275    0.5688 H   0  0  0  0  0  0  0  0  0  0  0  0
    0.2772   -1.9118   -0.1106 H   0  0  0  0  0  0  0  0  0  0  0  0
    3.1009    1.4437   -0.9717 H   0  0  0  0  0  0  0  0  0  0  0  0
    5.5096    0.8066   -0.9910 H   0  0  0  0  0  0  0  0  0  0  0  0
    6.2610   -1.3482   -0.0105 H   0  0  0  0  0  0  0  0  0  0  0  0
    4.5979   -2.8190    0.9667 H   0  0  0  0  0  0  0  0  0  0  0  0
    2.2324   -2.1884    0.9824 H   0  0  0  0  0  0  0  0  0  0  0  0
    1.5339    2.1198    0.1450 H   0  0  0  0  0  0  0  0  0  0  0  0
    0.0080    3.8491    0.2415 H   0  0  0  0  0  0  0  0  0  0  0  0
   -2.2599    4.6861    0.2801 H   0  0  0  0  0  0  0  0  0  0  0  0
   -4.1625    3.0728    0.1687 H   0  0  0  0  0  0  0  0  0  0  0  0
   -3.6704    0.6723    0.0244 H   0  0  0  0  0  0  0  0  0  0  0  0
  1  2  1  0
  2  3  1  0
  2  4  1  0
  4  5  2  0
  5  6  1  0
  6  7  1  0
  7  8  2  0
  8  9  1  0
  9 10  2  0
 10 11  1  0
 11 12  2  0
  6 13  2  0
 13 14  1  0
 14 15  2  0
 15 16  1  0
 16 17  2  0
 17 18  1  0
 18 19  2  0
 19  4  1  0
 12  7  1  0
 19 14  1  0
  1 20  1  0
  1 21  1  0
  1 22  1  0
  3 23  1  0
  3 24  1  0
  3 25  1  0
  5 26  1  0
  8 27  1  0
  9 28  1  0
 10 29  1  0
 11 30  1  0
 12 31  1  0
 13 32  1  0
 15 33  1  0
 16 34  1  0
 17 35  1  0
 18 36  1  0
M  END
