
     RDKit          3D

 28 31  0  0  0  0  0  0  0  0999 V2000
    1.6517    2.4933    0.5361 O   0  0  0  0  0  0  0  0  0  0  0  0
    1.3226    1.3005    0.3373 C   0  0  0  0  0  0  0  0  0  0  0  0
    2.2892    0.3463    0.2003 C   0  0  0  0  0  0  0  0  0  0  0  0
    3.6455    0.6297    0.2704 C   0  0  0  0  0  0  0  0  0  0  0  0
    4.5969   -0.3853    0.1233 C   0  0  0  0  0  0  0  0  0  0  0  0
    6.2863    0.0391    0.2222 Cl  0  0  0  0  0  0  0  0  0  0  0  0
    4.1671   -1.6770   -0.0933 C   0  0  0  0  0  0  0  0  0  0  0  0
    2.8204   -1.9659   -0.1641 C   0  0  0  0  0  0  0  0  0  0  0  0
    1.8720   -0.9499   -0.0168 C   0  0  0  0  0  0  0  0  0  0  0  0
    0.5561   -1.2077   -0.0821 N   0  0  0  0  0  0  0  0  0  0  0  0
   -0.3823   -0.2228    0.0604 C   0  0  0  0  0  0  0  0  0  0  0  0
   -0.0150    1.0469    0.2723 N   0  0  0  0  0  0  0  0  0  0  0  0
   -1.2503    1.9037    0.3888 B   0  0  0  0  0  4  0  0  0  0  0  0
   -1.4037    2.4917    1.7098 F   0  0  0  0  0  0  0  0  0  0  0  0
   -1.3130    2.9441   -0.6234 F   0  0  0  0  0  0  0  0  0  0  0  0
   -2.3922    0.9052    0.2068 N   0  0  0  0  0  4  0  0  0  0  0  0
   -3.7409    1.1023    0.2145 C   0  0  0  0  0  0  0  0  0  0  0  0
   -4.5682    0.0355    0.0272 C   0  0  0  0  0  0  0  0  0  0  0  0
   -4.0708   -1.2381   -0.1699 C   0  0  0  0  0  0  0  0  0  0  0  0
   -2.7012   -1.3838   -0.1689 C   0  0  0  0  0  0  0  0  0  0  0  0
   -1.8399   -0.3034    0.0212 C   0  0  0  0  0  0  0  0  0  0  0  0
    3.9215    1.6490    0.4402 H   0  0  0  0  0  0  0  0  0  0  0  0
    4.8824   -2.4774   -0.2099 H   0  0  0  0  0  0  0  0  0  0  0  0
    2.4670   -2.9610   -0.3314 H   0  0  0  0  0  0  0  0  0  0  0  0
   -4.1093    2.0944    0.3683 H   0  0  0  0  0  0  0  0  0  0  0  0
   -5.6566    0.2141    0.0365 H   0  0  0  0  0  0  0  0  0  0  0  0
   -4.7597   -2.0573   -0.3148 H   0  0  0  0  0  0  0  0  0  0  0  0
   -2.2757   -2.3662   -0.3202 H   0  0  0  0  0  0  0  0  0  0  0  0
  1  2  2  0
  2  3  1  0
  3  4  2  0
  4  5  1  0
  5  6  1  0
  5  7  2  0
  7  8  1  0
  8  9  2  0
  9 10  1  0
 10 11  2  0
 11 12  1  0
 12 13  1  0
 13 14  1  0
 13 15  1  0
 13 16  1  0
 16 17  2  0
 17 18  1  0
 18 19  2  0
 19 20  1  0
 20 21  2  0
 12  2  1  0
 21 16  1  0
  9  3  1  0
 21 11  1  0
  4 22  1  0
  7 23  1  0
  8 24  1  0
 17 25  1  0
 18 26  1  0
 19 27  1  0
 20 28  1  0
M  CHG  2  13  -1  16   1
M  END
