
     RDKit          3D

 47 52  0  0  0  0  0  0  0  0999 V2000
    0.6938   -2.1183   -2.2891 F   0  0  0  0  0  0  0  0  0  0  0  0
    0.2983   -1.2206   -1.3283 C   0  0  0  0  0  0  0  0  0  0  0  0
   -1.0621   -1.0130   -1.1793 C   0  0  0  0  0  0  0  0  0  0  0  0
   -1.9257   -1.6810   -1.9610 F   0  0  0  0  0  0  0  0  0  0  0  0
   -1.5343   -0.1266   -0.2355 C   0  0  0  0  0  0  0  0  0  0  0  0
   -2.9302    0.0815   -0.0879 N   0  0  0  0  0  0  0  0  0  0  0  0
   -3.8172   -0.8097    0.3511 C   0  0  0  0  0  0  0  0  0  0  0  0
   -3.6750   -2.1326    0.7752 C   0  0  0  0  0  0  0  0  0  0  0  0
   -4.7514   -2.8835    1.1965 C   0  0  0  0  0  0  0  0  0  0  0  0
   -5.9951   -2.2988    1.1933 C   0  0  0  0  0  0  0  0  0  0  0  0
   -6.1791   -0.9912    0.7808 C   0  0  0  0  0  0  0  0  0  0  0  0
   -5.0867   -0.2753    0.3689 C   0  0  0  0  0  0  0  0  0  0  0  0
   -4.9714    1.0229   -0.0870 C   0  0  0  0  0  0  0  0  0  0  0  0
   -5.8841    2.0526   -0.2920 C   0  0  0  0  0  0  0  0  0  0  0  0
   -5.4640    3.2736   -0.7695 C   0  0  0  0  0  0  0  0  0  0  0  0
   -4.1194    3.4271   -1.0310 C   0  0  0  0  0  0  0  0  0  0  0  0
   -3.1937    2.4239   -0.8370 C   0  0  0  0  0  0  0  0  0  0  0  0
   -3.6352    1.2025   -0.3561 C   0  0  0  0  0  0  0  0  0  0  0  0
   -0.6184    0.5409    0.5488 C   0  0  0  0  0  0  0  0  0  0  0  0
   -1.0731    1.4143    1.4794 F   0  0  0  0  0  0  0  0  0  0  0  0
    0.7542    0.3306    0.3975 C   0  0  0  0  0  0  0  0  0  0  0  0
    1.5867    1.0272    1.2087 F   0  0  0  0  0  0  0  0  0  0  0  0
    1.2059   -0.5556   -0.5473 C   0  0  0  0  0  0  0  0  0  0  0  0
    2.6254   -0.7704   -0.7009 C   0  0  0  0  0  0  0  0  0  0  0  0
    3.1733   -1.6208   -1.6010 N   0  0  0  0  0  0  0  0  0  0  0  0
    4.4766   -1.5291   -1.4253 N   0  0  0  0  0  0  0  0  0  0  0  0
    4.7136   -0.6567   -0.4558 C   0  0  0  0  0  0  0  0  0  0  0  0
    6.0786   -0.3099    0.0028 C   0  0  0  0  0  0  0  0  0  0  0  0
    6.2456    0.6084    1.0186 C   0  0  0  0  0  0  0  0  0  0  0  0
    7.5164    0.9453    1.4609 C   0  0  0  0  0  0  0  0  0  0  0  0
    8.6444    0.3786    0.9052 C   0  0  0  0  0  0  0  0  0  0  0  0
    8.4631   -0.5371   -0.1086 C   0  0  0  0  0  0  0  0  0  0  0  0
    7.1953   -0.8851   -0.5630 C   0  0  0  0  0  0  0  0  0  0  0  0
    3.5907   -0.1978   -0.0179 O   0  0  0  0  0  0  0  0  0  0  0  0
   -2.6723   -2.5495    0.7595 H   0  0  0  0  0  0  0  0  0  0  0  0
   -4.6392   -3.9085    1.5248 H   0  0  0  0  0  0  0  0  0  0  0  0
   -6.8630   -2.8571    1.5170 H   0  0  0  0  0  0  0  0  0  0  0  0
   -7.1742   -0.5284    0.7799 H   0  0  0  0  0  0  0  0  0  0  0  0
   -6.9031    1.8534   -0.0659 H   0  0  0  0  0  0  0  0  0  0  0  0
   -6.1734    4.0999   -0.9376 H   0  0  0  0  0  0  0  0  0  0  0  0
   -3.7710    4.3811   -1.4072 H   0  0  0  0  0  0  0  0  0  0  0  0
   -2.1366    2.5994   -1.0612 H   0  0  0  0  0  0  0  0  0  0  0  0
    5.3467    1.0361    1.4354 H   0  0  0  0  0  0  0  0  0  0  0  0
    7.6000    1.6806    2.2714 H   0  0  0  0  0  0  0  0  0  0  0  0
    9.6198    0.6702    1.2808 H   0  0  0  0  0  0  0  0  0  0  0  0
    9.3412   -0.9831   -0.5466 H   0  0  0  0  0  0  0  0  0  0  0  0
    7.0793   -1.6105   -1.3645 H   0  0  0  0  0  0  0  0  0  0  0  0
  1  2  1  0
  2  3  2  0
  3  4  1  0
  3  5  1  0
  5  6  1  0
  6  7  1  0
  7  8  2  0
  8  9  1  0
  9 10  2  0
 10 11  1  0
 11 12  2  0
 12 13  1  0
 13 14  2  0
 14 15  1  0
 15 16  2  0
 16 17  1  0
 17 18  2  0
  5 19  2  0
 19 20  1  0
 19 21  1  0
 21 22  1  0
 21 23  2  0
 23 24  1  0
 24 25  2  0
 25 26  1  0
 26 27  2  0
 27 28  1  0
 28 29  2  0
 29 30  1  0
 30 31  2  0
 31 32  1  0
 32 33  2  0
 27 34  1  0
 23  2  1  0
 34 24  1  0
 18  6  1  0
 33 28  1  0
 12  7  1  0
 18 13  1  0
  8 35  1  0
  9 36  1  0
 10 37  1  0
 11 38  1  0
 14 39  1  0
 15 40  1  0
 16 41  1  0
 17 42  1  0
 29 43  1  0
 30 44  1  0
 31 45  1  0
 32 46  1  0
 33 47  1  0
M  END
