
     RDKit          3D

 36 40  0  0  0  0  0  0  0  0999 V2000
   -6.0160   -0.2858    0.7828 C   0  0  0  0  0  0  0  0  0  0  0  0
   -5.9856    0.0318   -0.5574 C   0  0  0  0  0  0  0  0  0  0  0  0
   -4.7950    0.2120   -1.2236 C   0  0  0  0  0  0  0  0  0  0  0  0
   -3.5806    0.0790   -0.5641 C   0  0  0  0  0  0  0  0  0  0  0  0
   -2.3950    0.2629   -1.2466 C   0  0  0  0  0  0  0  0  0  0  0  0
   -1.1735    0.1326   -0.5978 C   0  0  0  0  0  0  0  0  0  0  0  0
    0.0007    0.3196   -1.2944 C   0  0  0  0  0  0  0  0  0  0  0  0
    1.2193    0.1882   -0.6414 C   0  0  0  0  0  0  0  0  0  0  0  0
    2.4019    0.3752   -1.3369 C   0  0  0  0  0  0  0  0  0  0  0  0
    3.6111    0.2381   -0.6609 C   0  0  0  0  0  0  0  0  0  0  0  0
    4.8124    0.4239   -1.3497 C   0  0  0  0  0  0  0  0  0  0  0  0
    5.9934    0.2889   -0.6844 C   0  0  0  0  0  0  0  0  0  0  0  0
    5.9522   -0.0289    0.6555 C   0  0  0  0  0  0  0  0  0  0  0  0
    4.7873   -0.2171    1.3576 C   0  0  0  0  0  0  0  0  0  0  0  0
    3.5708   -0.0797    0.6791 C   0  0  0  0  0  0  0  0  0  0  0  0
    2.3887   -0.2635    1.3613 C   0  0  0  0  0  0  0  0  0  0  0  0
    1.1984   -0.1298    0.7009 C   0  0  0  0  0  0  0  0  0  0  0  0
    0.0017   -0.3183    1.4021 C   0  0  0  0  0  0  0  0  0  0  0  0
   -1.2012   -0.1849    0.7419 C   0  0  0  0  0  0  0  0  0  0  0  0
   -2.4083   -0.3699    1.4270 C   0  0  0  0  0  0  0  0  0  0  0  0
   -3.6146   -0.2394    0.7788 C   0  0  0  0  0  0  0  0  0  0  0  0
   -4.8218   -0.4220    1.4540 C   0  0  0  0  0  0  0  0  0  0  0  0
   -6.9739   -0.4277    1.3056 H   0  0  0  0  0  0  0  0  0  0  0  0
   -6.9139    0.1434   -1.1035 H   0  0  0  0  0  0  0  0  0  0  0  0
   -4.7398    0.4632   -2.2809 H   0  0  0  0  0  0  0  0  0  0  0  0
   -2.3636    0.5115   -2.2946 H   0  0  0  0  0  0  0  0  0  0  0  0
    0.0264    0.5700   -2.3507 H   0  0  0  0  0  0  0  0  0  0  0  0
    2.4012    0.6243   -2.3900 H   0  0  0  0  0  0  0  0  0  0  0  0
    4.7911    0.6680   -2.3831 H   0  0  0  0  0  0  0  0  0  0  0  0
    6.9664    0.4152   -1.1401 H   0  0  0  0  0  0  0  0  0  0  0  0
    6.8918   -0.1446    1.2195 H   0  0  0  0  0  0  0  0  0  0  0  0
    4.7311   -0.4647    2.3993 H   0  0  0  0  0  0  0  0  0  0  0  0
    2.4091   -0.5128    2.4166 H   0  0  0  0  0  0  0  0  0  0  0  0
    0.0132   -0.5673    2.4554 H   0  0  0  0  0  0  0  0  0  0  0  0
   -2.3933   -0.6180    2.4768 H   0  0  0  0  0  0  0  0  0  0  0  0
   -4.7920   -0.6735    2.5191 H   0  0  0  0  0  0  0  0  0  0  0  0
  1  2  2  0
  2  3  1  0
  3  4  2  0
  4  5  1  0
  5  6  2  0
  6  7  1  0
  7  8  2  0
  8  9  1  0
  9 10  2  0
 10 11  1  0
 11 12  2  0
 12 13  1  0
 13 14  2  0
 14 15  1  0
 15 16  2  0
 16 17  1  0
 17 18  2  0
 18 19  1  0
 19 20  2  0
 20 21  1  0
 21 22  2  0
 22  1  1  0
 21  4  1  0
 19  6  1  0
 17  8  1  0
 15 10  1  0
  1 23  1  0
  2 24  1  0
  3 25  1  0
  5 26  1  0
  7 27  1  0
  9 28  1  0
 11 29  1  0
 12 30  1  0
 13 31  1  0
 14 32  1  0
 16 33  1  0
 18 34  1  0
 20 35  1  0
 22 36  1  0
M  END
