
     RDKit          3D

 23 25  0  0  0  0  0  0  0  0999 V2000
   -3.3134   -0.9825    0.3699 C   0  0  0  0  0  0  0  0  0  0  0  0
   -3.5126    0.2507   -0.2153 C   0  0  0  0  0  0  0  0  0  0  0  0
   -2.3870    0.9872   -0.5303 C   0  0  0  0  0  0  0  0  0  0  0  0
   -1.1087    0.5318   -0.2807 C   0  0  0  0  0  0  0  0  0  0  0  0
    0.0286    1.2814   -0.6016 C   0  0  0  0  0  0  0  0  0  0  0  0
    1.2944    0.8234   -0.3512 C   0  0  0  0  0  0  0  0  0  0  0  0
    2.3912    1.5874   -0.6799 C   0  0  0  0  0  0  0  0  0  0  0  0
    3.6323    1.1103   -0.4211 N   0  0  0  0  0  0  0  0  0  0  0  0
    3.8601   -0.0847    0.1469 C   0  0  0  0  0  0  0  0  0  0  0  0
    2.7765   -0.8622    0.4824 C   0  0  0  0  0  0  0  0  0  0  0  0
    1.4929   -0.4224    0.2400 C   0  0  0  0  0  0  0  0  0  0  0  0
    0.3722   -1.1548    0.5532 C   0  0  0  0  0  0  0  0  0  0  0  0
   -0.9105   -0.7010    0.3043 C   0  0  0  0  0  0  0  0  0  0  0  0
   -2.0393   -1.4494    0.6248 C   0  0  0  0  0  0  0  0  0  0  0  0
   -4.1944   -1.5590    0.6165 H   0  0  0  0  0  0  0  0  0  0  0  0
   -4.5224    0.6290   -0.4211 H   0  0  0  0  0  0  0  0  0  0  0  0
   -2.5014    1.9530   -0.9875 H   0  0  0  0  0  0  0  0  0  0  0  0
   -0.1337    2.2471   -1.0600 H   0  0  0  0  0  0  0  0  0  0  0  0
    2.3132    2.5633   -1.1408 H   0  0  0  0  0  0  0  0  0  0  0  0
    4.8784   -0.3928    0.3200 H   0  0  0  0  0  0  0  0  0  0  0  0
    2.9491   -1.8198    0.9373 H   0  0  0  0  0  0  0  0  0  0  0  0
    0.5011   -2.1291    1.0148 H   0  0  0  0  0  0  0  0  0  0  0  0
   -1.8668   -2.4067    1.0796 H   0  0  0  0  0  0  0  0  0  0  0  0
  1  2  2  0
  2  3  1  0
  3  4  2  0
  4  5  1  0
  5  6  2  0
  6  7  1  0
  7  8  2  0
  8  9  1  0
  9 10  2  0
 10 11  1  0
 11 12  2  0
 12 13  1  0
 13 14  2  0
 14  1  1  0
 13  4  1  0
 11  6  1  0
  1 15  1  0
  2 16  1  0
  3 17  1  0
  5 18  1  0
  7 19  1  0
  9 20  1  0
 10 21  1  0
 12 22  1  0
 14 23  1  0
M  END
