
     RDKit          3D

 53 56  0  0  0  0  0  0  0  0999 V2000
   -0.2855    3.5450    1.5026 C   0  0  0  0  0  0  0  0  0  0  0  0
   -1.1602    2.4738    1.1233 O   0  0  0  0  0  0  0  0  0  0  0  0
   -0.5744    1.2704    0.6891 C   0  0  0  0  0  0  0  0  0  0  0  0
    0.7664    1.0968    0.6200 C   0  0  0  0  0  0  0  0  0  0  0  0
    1.3375   -0.1101    0.1846 C   0  0  0  0  0  0  0  0  0  0  0  0
    2.7722   -0.1754    0.1539 C   0  0  0  0  0  0  0  0  0  0  0  0
    3.5187   -1.1877   -0.2125 C   0  0  0  0  0  0  0  0  0  0  0  0
    4.9966   -1.0449   -0.1689 C   0  0  0  0  0  0  0  0  0  0  0  0
    5.7072    0.0015    0.2021 N   0  0  0  0  0  0  0  0  0  0  0  0
    7.0061   -0.0574    0.1745 C   0  0  0  0  0  0  0  0  0  0  0  0
    7.8934    0.9665    0.5365 C   0  0  0  0  0  0  0  0  0  0  0  0
    9.2457    0.8161    0.4759 C   0  0  0  0  0  0  0  0  0  0  0  0
    9.8184   -0.3610    0.0517 C   0  0  0  0  0  0  0  0  0  0  0  0
    8.9735   -1.3886   -0.3118 C   0  0  0  0  0  0  0  0  0  0  0  0
    7.5801   -1.2260   -0.2466 C   0  0  0  0  0  0  0  0  0  0  0  0
    6.2008   -2.1823   -0.5820 S   0  0  0  0  0  0  0  0  0  0  0  0
    0.4590   -1.1047   -0.1673 C   0  0  0  0  0  0  0  0  0  0  0  0
    0.9709   -2.3168   -0.6043 O   0  0  0  0  0  0  0  0  0  0  0  0
    0.1270   -3.3767   -0.9799 C   0  0  0  0  0  0  0  0  0  0  0  0
   -0.9337   -0.9567   -0.1072 C   0  0  0  0  0  0  0  0  0  0  0  0
   -1.4291    0.2411    0.3246 C   0  0  0  0  0  0  0  0  0  0  0  0
   -2.8706    0.4582    0.4099 C   0  0  0  0  0  0  0  0  0  0  0  0
   -3.7529   -0.4488    0.0892 C   0  0  0  0  0  0  0  0  0  0  0  0
   -5.1755   -0.1623    0.1993 C   0  0  0  0  0  0  0  0  0  0  0  0
   -5.5778    1.0417    0.6332 N   0  0  0  0  0  0  0  0  0  0  0  0
   -6.8770    1.3467    0.7493 C   0  0  0  0  0  0  0  0  0  0  0  0
   -7.2796    2.7018    1.2375 C   0  0  0  0  0  0  0  0  0  0  0  0
   -7.7951    0.4475    0.4315 N   0  0  0  0  0  0  0  0  0  0  0  0
   -7.4255   -0.7678   -0.0063 C   0  0  0  0  0  0  0  0  0  0  0  0
   -8.4919   -1.7669   -0.3591 C   0  0  0  0  0  0  0  0  0  0  0  0
   -6.1207   -1.0702   -0.1215 N   0  0  0  0  0  0  0  0  0  0  0  0
    0.2806    3.2962    2.4136 H   0  0  0  0  0  0  0  0  0  0  0  0
   -0.8592    4.4861    1.6204 H   0  0  0  0  0  0  0  0  0  0  0  0
    0.4696    3.7361    0.6972 H   0  0  0  0  0  0  0  0  0  0  0  0
    1.4076    1.9392    0.9187 H   0  0  0  0  0  0  0  0  0  0  0  0
    3.3402    0.7184    0.4711 H   0  0  0  0  0  0  0  0  0  0  0  0
    3.0805   -2.0865   -0.5321 H   0  0  0  0  0  0  0  0  0  0  0  0
    7.5065    1.9405    0.8870 H   0  0  0  0  0  0  0  0  0  0  0  0
    9.9065    1.6663    0.7769 H   0  0  0  0  0  0  0  0  0  0  0  0
   10.8827   -0.4710    0.0071 H   0  0  0  0  0  0  0  0  0  0  0  0
    9.3211   -2.3357   -0.6525 H   0  0  0  0  0  0  0  0  0  0  0  0
   -0.6294   -3.0510   -1.7409 H   0  0  0  0  0  0  0  0  0  0  0  0
   -0.3678   -3.7494   -0.0597 H   0  0  0  0  0  0  0  0  0  0  0  0
    0.6854   -4.2057   -1.4381 H   0  0  0  0  0  0  0  0  0  0  0  0
   -1.5411   -1.8053   -0.4081 H   0  0  0  0  0  0  0  0  0  0  0  0
   -3.2606    1.4183    0.7562 H   0  0  0  0  0  0  0  0  0  0  0  0
   -3.4695   -1.4211   -0.2609 H   0  0  0  0  0  0  0  0  0  0  0  0
   -7.9433    3.1442    0.4501 H   0  0  0  0  0  0  0  0  0  0  0  0
   -6.4054    3.3476    1.3401 H   0  0  0  0  0  0  0  0  0  0  0  0
   -7.7951    2.6466    2.2148 H   0  0  0  0  0  0  0  0  0  0  0  0
   -8.1576   -2.3168   -1.2624 H   0  0  0  0  0  0  0  0  0  0  0  0
   -9.3958   -1.1914   -0.6495 H   0  0  0  0  0  0  0  0  0  0  0  0
   -8.6799   -2.4082    0.5084 H   0  0  0  0  0  0  0  0  0  0  0  0
  1  2  1  0
  2  3  1  0
  3  4  2  0
  4  5  1  0
  5  6  1  0
  6  7  2  0
  7  8  1  0
  8  9  2  0
  9 10  1  0
 10 11  2  0
 11 12  1  0
 12 13  2  0
 13 14  1  0
 14 15  2  0
 15 16  1  0
  5 17  2  0
 17 18  1  0
 18 19  1  0
 17 20  1  0
 20 21  2  0
 21 22  1  0
 22 23  2  0
 23 24  1  0
 24 25  2  0
 25 26  1  0
 26 27  1  0
 26 28  2  0
 28 29  1  0
 29 30  1  0
 29 31  2  0
 21  3  1  0
 31 24  1  0
 16  8  1  0
 15 10  1  0
  1 32  1  0
  1 33  1  0
  1 34  1  0
  4 35  1  0
  6 36  1  0
  7 37  1  0
 11 38  1  0
 12 39  1  0
 13 40  1  0
 14 41  1  0
 19 42  1  0
 19 43  1  0
 19 44  1  0
 20 45  1  0
 22 46  1  0
 23 47  1  0
 27 48  1  0
 27 49  1  0
 27 50  1  0
 30 51  1  0
 30 52  1  0
 30 53  1  0
M  END
