
     RDKit          3D

 50 55  0  0  0  0  0  0  0  0999 V2000
   -0.9944   -4.1151    0.2967 O   0  0  0  0  0  0  0  0  0  0  0  0
   -0.7622   -2.8962    0.1701 C   0  0  0  0  0  0  0  0  0  0  0  0
   -1.7944   -2.0021    0.7111 C   0  0  0  0  0  0  0  0  0  0  0  0
   -2.9353   -2.5974    1.1492 C   0  0  0  0  0  0  0  0  0  0  0  0
   -3.9363   -1.8319    1.7181 C   0  0  0  0  0  0  0  0  0  0  0  0
   -3.7710   -0.4423    1.8434 C   0  0  0  0  0  0  0  0  0  0  0  0
   -2.6242    0.1722    1.4066 C   0  0  0  0  0  0  0  0  0  0  0  0
   -1.6549   -0.6224    0.8430 C   0  0  0  0  0  0  0  0  0  0  0  0
   -0.5228    0.2235    0.4203 C   0  0  0  0  0  0  0  0  0  0  0  0
   -0.9446    1.2549   -0.2217 C   0  0  0  0  0  0  0  0  0  0  0  0
   -2.2919    1.5893   -0.5438 C   0  0  0  0  0  0  0  0  0  0  0  0
   -2.6981    2.9083   -0.4167 C   0  0  0  0  0  0  0  0  0  0  0  0
   -3.9397    3.3431   -0.7777 C   0  0  0  0  0  0  0  0  0  0  0  0
   -4.8512    2.4802   -1.2893 C   0  0  0  0  0  0  0  0  0  0  0  0
   -4.4642    1.1653   -1.4227 C   0  0  0  0  0  0  0  0  0  0  0  0
   -3.2366    0.7641   -1.0596 N   0  0  0  0  0  0  0  0  0  0  0  0
    0.0693    2.2300   -0.5868 N   0  0  0  0  0  0  0  0  0  0  0  0
    1.4006    2.0198   -0.2523 N   0  0  0  0  0  0  0  0  0  0  0  0
    1.8283    0.9736    0.3604 C   0  0  0  0  0  0  0  0  0  0  0  0
    3.2520    0.9320    0.6621 C   0  0  0  0  0  0  0  0  0  0  0  0
    4.0790    1.9500    0.2545 C   0  0  0  0  0  0  0  0  0  0  0  0
    5.4491    1.9221    0.5684 C   0  0  0  0  0  0  0  0  0  0  0  0
    5.9667    0.8679    1.2893 C   0  0  0  0  0  0  0  0  0  0  0  0
    5.1071   -0.1340    1.6806 C   0  0  0  0  0  0  0  0  0  0  0  0
    3.8053   -0.0672    1.3592 N   0  0  0  0  0  0  0  0  0  0  0  0
    0.9387   -0.1646    0.5793 C   0  0  0  0  0  0  0  0  0  0  0  0
    1.1811   -1.3031   -0.3322 C   0  0  0  0  0  0  0  0  0  0  0  0
    2.2719   -1.1246   -1.1237 C   0  0  0  0  0  0  0  0  0  0  0  0
    2.6651   -2.1189   -2.0543 C   0  0  0  0  0  0  0  0  0  0  0  0
    1.9693   -3.2745   -2.1868 C   0  0  0  0  0  0  0  0  0  0  0  0
    0.8530   -3.4712   -1.3901 C   0  0  0  0  0  0  0  0  0  0  0  0
    0.4761   -2.4962   -0.4856 C   0  0  0  0  0  0  0  0  0  0  0  0
   -3.0267   -3.6833    1.0368 H   0  0  0  0  0  0  0  0  0  0  0  0
   -4.8499   -2.3065    2.0670 H   0  0  0  0  0  0  0  0  0  0  0  0
   -4.5580    0.1301    2.2874 H   0  0  0  0  0  0  0  0  0  0  0  0
   -2.4454    1.1863    1.5549 H   0  0  0  0  0  0  0  0  0  0  0  0
   -2.0053    3.6227   -0.0161 H   0  0  0  0  0  0  0  0  0  0  0  0
   -4.2234    4.3868   -0.6622 H   0  0  0  0  0  0  0  0  0  0  0  0
   -5.8348    2.7963   -1.5818 H   0  0  0  0  0  0  0  0  0  0  0  0
   -5.1960    0.4706   -1.8331 H   0  0  0  0  0  0  0  0  0  0  0  0
   -0.2099    3.0918   -1.1037 H   0  0  0  0  0  0  0  0  0  0  0  0
    3.7435    2.8005   -0.3096 H   0  0  0  0  0  0  0  0  0  0  0  0
    6.1179    2.7053    0.2609 H   0  0  0  0  0  0  0  0  0  0  0  0
    7.0405    0.8299    1.5453 H   0  0  0  0  0  0  0  0  0  0  0  0
    5.4471   -0.9808    2.2431 H   0  0  0  0  0  0  0  0  0  0  0  0
    1.0885   -0.5148    1.6039 H   0  0  0  0  0  0  0  0  0  0  0  0
    2.9095   -0.2651   -1.1792 H   0  0  0  0  0  0  0  0  0  0  0  0
    3.5324   -1.9874   -2.6879 H   0  0  0  0  0  0  0  0  0  0  0  0
    2.2746   -4.0307   -2.8989 H   0  0  0  0  0  0  0  0  0  0  0  0
    0.3049   -4.3863   -1.4957 H   0  0  0  0  0  0  0  0  0  0  0  0
  1  2  2  0
  2  3  1  0
  3  4  2  0
  4  5  1  0
  5  6  2  0
  6  7  1  0
  7  8  2  0
  8  9  1  0
  9 10  2  0
 10 11  1  0
 11 12  2  0
 12 13  1  0
 13 14  2  0
 14 15  1  0
 15 16  2  0
 10 17  1  0
 17 18  1  0
 18 19  2  0
 19 20  1  0
 20 21  2  0
 21 22  1  0
 22 23  2  0
 23 24  1  0
 24 25  2  0
 19 26  1  0
 26 27  1  0
 27 28  2  0
 28 29  1  0
 29 30  2  0
 30 31  1  0
 31 32  2  0
 32  2  1  0
  8  3  1  0
 26  9  1  0
 32 27  1  0
 16 11  1  0
 25 20  1  0
  4 33  1  0
  5 34  1  0
  6 35  1  0
  7 36  1  0
 12 37  1  0
 13 38  1  0
 14 39  1  0
 15 40  1  0
 17 41  1  0
 21 42  1  0
 22 43  1  0
 23 44  1  0
 24 45  1  0
 26 46  1  0
 28 47  1  0
 29 48  1  0
 30 49  1  0
 31 50  1  0
M  END
