
     RDKit          3D

 97104  0  0  0  0  0  0  0  0999 V2000
    3.4484   -4.5788   -1.2965 C   0  0  0  0  0  0  0  0  0  0  0  0
    2.0900   -4.0336   -1.0957 C   0  0  0  0  0  0  0  0  0  0  0  0
    1.8207   -2.8034   -0.6798 N   0  0  0  0  0  4  0  0  0  0  0  0
    0.4611   -2.5650   -0.5802 C   0  0  0  0  0  0  0  0  0  0  0  0
   -0.0595   -1.3273   -0.3564 C   0  0  0  0  0  0  0  0  0  0  0  0
   -1.4945   -1.2636   -0.2361 C   0  0  0  0  0  0  0  0  0  0  0  0
   -2.4026   -0.3761   -0.3742 C   0  0  0  0  0  0  0  0  0  0  0  0
   -3.8660   -0.4391   -0.1976 C   0  0  0  0  0  0  0  0  0  0  0  0
   -4.4332    0.8087   -0.0205 O   0  0  0  0  0  0  0  0  0  0  0  0
   -4.4720    1.6060   -1.1359 C   0  0  0  0  0  0  0  0  0  0  0  0
   -5.8072    1.5742   -1.8353 C   0  0  0  0  0  0  0  0  0  0  0  0
   -6.2588    2.8308   -2.1980 O   0  0  0  0  0  0  0  0  0  0  0  0
   -6.7559    3.5634   -1.1267 C   0  0  0  0  0  0  0  0  0  0  0  0
   -8.0866    3.0971   -0.6506 C   0  0  0  0  0  0  0  0  0  0  0  0
   -8.0507    2.5487    0.6303 O   0  0  0  0  0  0  0  0  0  0  0  0
   -8.9892    1.5142    0.6561 C   0  0  0  0  0  0  0  0  0  0  0  0
   -9.0232    0.8306    2.0069 C   0  0  0  0  0  0  0  0  0  0  0  0
   -8.5487   -0.4892    1.8557 O   0  0  0  0  0  0  0  0  0  0  0  0
   -7.3686   -0.5070    1.1164 C   0  0  0  0  0  0  0  0  0  0  0  0
   -6.3690   -1.3648    1.8640 C   0  0  0  0  0  0  0  0  0  0  0  0
   -5.4506   -1.8466    0.9283 O   0  0  0  0  0  0  0  0  0  0  0  0
   -4.2168   -1.2355    1.0615 C   0  0  0  0  0  0  0  0  0  0  0  0
   -3.1777   -2.2852    1.2557 C   0  0  0  0  0  0  0  0  0  0  0  0
   -2.0160   -2.3614    0.7442 C   0  0  0  0  0  0  0  0  0  0  0  0
    0.8487   -0.2240   -0.1062 C   0  0  0  0  0  0  0  0  0  0  0  0
    0.6753    1.1017    0.2983 C   0  0  0  0  0  0  0  0  0  0  0  0
   -0.4141    1.8655    0.5979 C   0  0  0  0  0  0  0  0  0  0  0  0
   -0.3695    3.1803    1.0701 C   0  0  0  0  0  0  0  0  0  0  0  0
    0.8526    3.7687    1.2585 C   0  0  0  0  0  0  0  0  0  0  0  0
    1.9688    3.0204    0.9704 C   0  0  0  0  0  0  0  0  0  0  0  0
    1.8892    1.7160    0.5027 C   0  0  0  0  0  0  0  0  0  0  0  0
    2.8623    0.7553    0.2348 C   0  0  0  0  0  0  0  0  0  0  0  0
    4.2650    1.1073    0.3671 C   0  0  0  0  0  0  0  0  0  0  0  0
    5.3465    0.4348    0.1430 C   0  0  0  0  0  0  0  0  0  0  0  0
    6.7220    0.9663    0.3381 C   0  0  0  0  0  0  0  0  0  0  0  0
    7.7820    0.1192    0.0668 C   0  0  0  0  0  0  0  0  0  0  0  0
    9.0679    0.5706    0.2290 C   0  0  0  0  0  0  0  0  0  0  0  0
    9.3617    1.8515    0.6573 C   0  0  0  0  0  0  0  0  0  0  0  0
   10.7128    2.2910    0.8165 N   0  0  0  0  0  0  0  0  0  0  0  0
   11.0384    3.6303    1.2530 C   0  0  0  0  0  0  0  0  0  0  0  0
   11.7775    1.3660    0.5328 C   0  0  0  0  0  0  0  0  0  0  0  0
    8.2961    2.6787    0.9221 C   0  0  0  0  0  0  0  0  0  0  0  0
    6.9787    2.2368    0.7627 C   0  0  0  0  0  0  0  0  0  0  0  0
    2.2099   -0.3758   -0.1155 N   0  0  0  0  0  0  0  0  0  0  0  0
    2.8523   -1.7103   -0.3939 B   0  0  0  0  0  4  0  0  0  0  0  0
    3.6950   -2.1555    0.7227 F   0  0  0  0  0  0  0  0  0  0  0  0
    3.6153   -1.6067   -1.6552 F   0  0  0  0  0  0  0  0  0  0  0  0
   -0.1679   -3.8476   -1.0216 C   0  0  0  0  0  0  0  0  0  0  0  0
   -1.4357   -4.2584   -1.2589 C   0  0  0  0  0  0  0  0  0  0  0  0
   -1.6984   -5.5324   -1.7779 C   0  0  0  0  0  0  0  0  0  0  0  0
   -0.6782   -6.4061   -2.0669 C   0  0  0  0  0  0  0  0  0  0  0  0
    0.6202   -5.9879   -1.8349 C   0  0  0  0  0  0  0  0  0  0  0  0
    0.8722   -4.7375   -1.3292 C   0  0  0  0  0  0  0  0  0  0  0  0
    3.3751   -5.6770   -1.4137 H   0  0  0  0  0  0  0  0  0  0  0  0
    3.9230   -4.1873   -2.2243 H   0  0  0  0  0  0  0  0  0  0  0  0
    4.1014   -4.4170   -0.4102 H   0  0  0  0  0  0  0  0  0  0  0  0
   -2.0367    0.5682   -0.8964 H   0  0  0  0  0  0  0  0  0  0  0  0
   -4.2913   -1.0140   -1.0411 H   0  0  0  0  0  0  0  0  0  0  0  0
   -3.6576    1.3927   -1.8663 H   0  0  0  0  0  0  0  0  0  0  0  0
   -4.2483    2.6562   -0.7800 H   0  0  0  0  0  0  0  0  0  0  0  0
   -6.5481    1.0079   -1.2303 H   0  0  0  0  0  0  0  0  0  0  0  0
   -5.6738    0.9923   -2.7711 H   0  0  0  0  0  0  0  0  0  0  0  0
   -6.0243    3.6043   -0.2790 H   0  0  0  0  0  0  0  0  0  0  0  0
   -6.8471    4.6104   -1.4808 H   0  0  0  0  0  0  0  0  0  0  0  0
   -8.5291    2.3887   -1.3799 H   0  0  0  0  0  0  0  0  0  0  0  0
   -8.7789    3.9600   -0.5975 H   0  0  0  0  0  0  0  0  0  0  0  0
   -8.7496    0.8068   -0.1721 H   0  0  0  0  0  0  0  0  0  0  0  0
   -9.9702    1.9822    0.4049 H   0  0  0  0  0  0  0  0  0  0  0  0
   -8.4360    1.3849    2.7757 H   0  0  0  0  0  0  0  0  0  0  0  0
  -10.0883    0.7371    2.3004 H   0  0  0  0  0  0  0  0  0  0  0  0
   -7.5434   -0.9120    0.0828 H   0  0  0  0  0  0  0  0  0  0  0  0
   -6.9797    0.5192    1.0813 H   0  0  0  0  0  0  0  0  0  0  0  0
   -5.8041   -0.7102    2.5572 H   0  0  0  0  0  0  0  0  0  0  0  0
   -6.8674   -2.1999    2.4023 H   0  0  0  0  0  0  0  0  0  0  0  0
   -4.1971   -0.5967    1.9657 H   0  0  0  0  0  0  0  0  0  0  0  0
   -3.5303   -3.0831    1.9577 H   0  0  0  0  0  0  0  0  0  0  0  0
   -1.3275   -3.1323    1.0112 H   0  0  0  0  0  0  0  0  0  0  0  0
   -1.3846    1.4796    0.5780 H   0  0  0  0  0  0  0  0  0  0  0  0
   -1.2558    3.7571    1.2943 H   0  0  0  0  0  0  0  0  0  0  0  0
    0.9200    4.7889    1.6230 H   0  0  0  0  0  0  0  0  0  0  0  0
    2.9213    3.4900    1.1229 H   0  0  0  0  0  0  0  0  0  0  0  0
    4.4906    2.1430    0.7295 H   0  0  0  0  0  0  0  0  0  0  0  0
    5.2633   -0.5645   -0.2154 H   0  0  0  0  0  0  0  0  0  0  0  0
    7.6002   -0.9054   -0.2753 H   0  0  0  0  0  0  0  0  0  0  0  0
    9.9354   -0.0757    0.0227 H   0  0  0  0  0  0  0  0  0  0  0  0
   12.0870    3.6798    1.5954 H   0  0  0  0  0  0  0  0  0  0  0  0
   10.4013    3.9752    2.0843 H   0  0  0  0  0  0  0  0  0  0  0  0
   10.9460    4.3647    0.4048 H   0  0  0  0  0  0  0  0  0  0  0  0
   12.7651    1.8557    0.5749 H   0  0  0  0  0  0  0  0  0  0  0  0
   11.7019    0.5375    1.2590 H   0  0  0  0  0  0  0  0  0  0  0  0
   11.6392    0.9316   -0.4781 H   0  0  0  0  0  0  0  0  0  0  0  0
    8.4802    3.6960    1.2618 H   0  0  0  0  0  0  0  0  0  0  0  0
    6.2069    2.9485    0.9911 H   0  0  0  0  0  0  0  0  0  0  0  0
   -2.2684   -3.5940   -1.1335 H   0  0  0  0  0  0  0  0  0  0  0  0
   -2.7129   -5.8251   -1.9503 H   0  0  0  0  0  0  0  0  0  0  0  0
   -0.9237   -7.3794   -2.4614 H   0  0  0  0  0  0  0  0  0  0  0  0
    1.3962   -6.7001   -2.0753 H   0  0  0  0  0  0  0  0  0  0  0  0
  1  2  1  0
  2  3  2  0
  3  4  1  0
  4  5  2  0
  5  6  1  0
  6  7  2  0
  7  8  1  0
  8  9  1  0
  9 10  1  0
 10 11  1  0
 11 12  1  0
 12 13  1  0
 13 14  1  0
 14 15  1  0
 15 16  1  0
 16 17  1  0
 17 18  1  0
 18 19  1  0
 19 20  1  0
 20 21  1  0
 21 22  1  0
 22 23  1  0
 23 24  2  0
  5 25  1  0
 25 26  2  0
 26 27  1  0
 27 28  2  0
 28 29  1  0
 29 30  2  0
 30 31  1  0
 31 32  2  0
 32 33  1  0
 33 34  2  0
 34 35  1  0
 35 36  2  0
 36 37  1  0
 37 38  2  0
 38 39  1  0
 39 40  1  0
 39 41  1  0
 38 42  1  0
 42 43  2  0
 32 44  1  0
 44 45  1  0
 45 46  1  0
 45 47  1  0
  4 48  1  0
 48 49  2  0
 49 50  1  0
 50 51  2  0
 51 52  1  0
 52 53  2  0
 53  2  1  0
 45  3  1  0
 53 48  1  0
 24  6  1  0
 44 25  1  0
 22  8  1  0
 31 26  1  0
 43 35  1  0
  1 54  1  0
  1 55  1  0
  1 56  1  0
  7 57  1  0
  8 58  1  0
 10 59  1  0
 10 60  1  0
 11 61  1  0
 11 62  1  0
 13 63  1  0
 13 64  1  0
 14 65  1  0
 14 66  1  0
 16 67  1  0
 16 68  1  0
 17 69  1  0
 17 70  1  0
 19 71  1  0
 19 72  1  0
 20 73  1  0
 20 74  1  0
 22 75  1  0
 23 76  1  0
 24 77  1  0
 27 78  1  0
 28 79  1  0
 29 80  1  0
 30 81  1  0
 33 82  1  0
 34 83  1  0
 36 84  1  0
 37 85  1  0
 40 86  1  0
 40 87  1  0
 40 88  1  0
 41 89  1  0
 41 90  1  0
 41 91  1  0
 42 92  1  0
 43 93  1  0
 49 94  1  0
 50 95  1  0
 51 96  1  0
 52 97  1  0
M  CHG  2   3   1  45  -1
M  END
