
     RDKit          3D

 58 64  0  0  0  0  0  0  0  0999 V2000
   -8.1519    1.1556    4.5877 C   0  0  0  0  0  0  0  0  0  0  0  0
   -8.5076    0.4142    3.4224 O   0  0  0  0  0  0  0  0  0  0  0  0
   -7.5351    0.0624    2.4964 C   0  0  0  0  0  0  0  0  0  0  0  0
   -7.9048   -0.6581    1.3716 C   0  0  0  0  0  0  0  0  0  0  0  0
   -6.9264   -1.0122    0.4397 C   0  0  0  0  0  0  0  0  0  0  0  0
   -5.6162   -0.6564    0.6268 C   0  0  0  0  0  0  0  0  0  0  0  0
   -4.6404   -1.0637   -0.3968 C   0  0  0  0  0  0  0  0  0  0  0  0
   -3.2917   -0.8229   -0.4188 C   0  0  0  0  0  0  0  0  0  0  0  0
   -2.5920   -1.3043   -1.4804 C   0  0  0  0  0  0  0  0  0  0  0  0
   -3.3002   -1.9812   -2.4222 C   0  0  0  0  0  0  0  0  0  0  0  0
   -4.8978   -1.9434   -1.8366 S   0  0  0  0  0  0  0  0  0  0  0  0
   -2.5307   -2.4117   -3.4181 C   0  0  0  0  0  0  0  0  0  0  0  0
   -1.1703   -1.9614   -3.0807 C   0  0  0  0  0  0  0  0  0  0  0  0
   -0.0244   -2.1055   -3.7029 C   0  0  0  0  0  0  0  0  0  0  0  0
    0.1196   -2.8254   -4.9963 C   0  0  0  0  0  0  0  0  0  0  0  0
   -1.0535   -3.3162   -5.4687 F   0  0  0  0  0  0  0  0  0  0  0  0
    0.6838   -1.9100   -5.8948 F   0  0  0  0  0  0  0  0  0  0  0  0
    1.0165   -3.8707   -4.8974 F   0  0  0  0  0  0  0  0  0  0  0  0
    1.1972   -1.5310   -3.1048 C   0  0  0  0  0  0  0  0  0  0  0  0
    2.5068   -1.5646   -3.5879 C   0  0  0  0  0  0  0  0  0  0  0  0
    3.2481   -0.8823   -2.6464 C   0  0  0  0  0  0  0  0  0  0  0  0
    4.8032   -0.3362   -2.2047 S   0  0  0  0  0  0  0  0  0  0  0  0
    4.4090    0.4396   -0.7328 C   0  0  0  0  0  0  0  0  0  0  0  0
    5.3025    1.1477    0.2050 C   0  0  0  0  0  0  0  0  0  0  0  0
    4.8042    1.7129    1.3431 C   0  0  0  0  0  0  0  0  0  0  0  0
    5.6581    2.3872    2.2360 C   0  0  0  0  0  0  0  0  0  0  0  0
    7.0082    2.4881    1.9775 C   0  0  0  0  0  0  0  0  0  0  0  0
    7.8625    3.1631    2.8715 O   0  0  0  0  0  0  0  0  0  0  0  0
    9.2331    3.2866    2.6454 C   0  0  0  0  0  0  0  0  0  0  0  0
    7.4963    1.9124    0.8246 C   0  0  0  0  0  0  0  0  0  0  0  0
    6.6464    1.2496   -0.0498 C   0  0  0  0  0  0  0  0  0  0  0  0
    3.0629    0.2446   -0.6341 C   0  0  0  0  0  0  0  0  0  0  0  0
    2.4602   -0.4407   -1.6258 C   0  0  0  0  0  0  0  0  0  0  0  0
    1.1878   -0.8684   -1.9540 N   0  0  0  0  0  0  0  0  0  0  0  0
   -0.0955   -0.6701   -1.1940 B   0  0  0  0  0  4  0  0  0  0  0  0
   -0.0197   -1.2730    0.1491 F   0  0  0  0  0  0  0  0  0  0  0  0
   -0.3070    0.7576   -0.9544 F   0  0  0  0  0  0  0  0  0  0  0  0
   -1.3135   -1.2785   -1.8516 N   0  0  0  0  0  4  0  0  0  0  0  0
   -5.2542    0.0532    1.7355 C   0  0  0  0  0  0  0  0  0  0  0  0
   -6.2193    0.4237    2.6913 C   0  0  0  0  0  0  0  0  0  0  0  0
   -7.5807    2.0494    4.2076 H   0  0  0  0  0  0  0  0  0  0  0  0
   -7.5228    0.5453    5.2709 H   0  0  0  0  0  0  0  0  0  0  0  0
   -9.0530    1.5538    5.0955 H   0  0  0  0  0  0  0  0  0  0  0  0
   -8.9239   -0.9325    1.2301 H   0  0  0  0  0  0  0  0  0  0  0  0
   -7.2852   -1.5739   -0.4145 H   0  0  0  0  0  0  0  0  0  0  0  0
   -2.8787   -0.2422    0.4524 H   0  0  0  0  0  0  0  0  0  0  0  0
   -2.8358   -2.9697   -4.2851 H   0  0  0  0  0  0  0  0  0  0  0  0
    2.8377   -2.0244   -4.4918 H   0  0  0  0  0  0  0  0  0  0  0  0
    3.7629    1.6739    1.6096 H   0  0  0  0  0  0  0  0  0  0  0  0
    5.2789    2.8408    3.1426 H   0  0  0  0  0  0  0  0  0  0  0  0
    9.7326    3.5689    3.5917 H   0  0  0  0  0  0  0  0  0  0  0  0
    9.7181    2.3757    2.2548 H   0  0  0  0  0  0  0  0  0  0  0  0
    9.4325    4.1325    1.9262 H   0  0  0  0  0  0  0  0  0  0  0  0
    8.5561    1.9921    0.6223 H   0  0  0  0  0  0  0  0  0  0  0  0
    7.0371    0.8006   -0.9518 H   0  0  0  0  0  0  0  0  0  0  0  0
    2.5577    0.6726    0.2711 H   0  0  0  0  0  0  0  0  0  0  0  0
   -4.2262    0.3419    1.8987 H   0  0  0  0  0  0  0  0  0  0  0  0
   -5.9611    0.9846    3.5768 H   0  0  0  0  0  0  0  0  0  0  0  0
  1  2  1  0
  2  3  1  0
  3  4  2  0
  4  5  1  0
  5  6  2  0
  6  7  1  0
  7  8  2  0
  8  9  1  0
  9 10  1  0
 10 11  1  0
 10 12  2  0
 12 13  1  0
 13 14  2  0
 14 15  1  0
 15 16  1  0
 15 17  1  0
 15 18  1  0
 14 19  1  0
 19 20  2  0
 20 21  1  0
 21 22  1  0
 22 23  1  0
 23 24  1  0
 24 25  2  0
 25 26  1  0
 26 27  2  0
 27 28  1  0
 28 29  1  0
 27 30  1  0
 30 31  2  0
 23 32  2  0
 32 33  1  0
 33 34  1  0
 34 35  1  0
 35 36  1  0
 35 37  1  0
 35 38  1  0
  6 39  1  0
 39 40  2  0
 40  3  1  0
 11  7  1  0
 38 13  1  0
 38  9  2  0
 34 19  1  0
 33 21  2  0
 31 24  1  0
  1 41  1  0
  1 42  1  0
  1 43  1  0
  4 44  1  0
  5 45  1  0
  8 46  1  0
 12 47  1  0
 20 48  1  0
 25 49  1  0
 26 50  1  0
 29 51  1  0
 29 52  1  0
 29 53  1  0
 30 54  1  0
 31 55  1  0
 32 56  1  0
 39 57  1  0
 40 58  1  0
M  CHG  2  35  -1  38   1
M  END
