
     RDKit          3D

 34 37  0  0  0  0  0  0  0  0999 V2000
    3.9622   -1.5141    0.2660 C   0  0  0  0  0  0  0  0  0  0  0  0
    3.6417   -0.5367   -0.6802 C   0  0  0  0  0  0  0  0  0  0  0  0
    2.3335   -0.0571   -0.7500 C   0  0  0  0  0  0  0  0  0  0  0  0
    1.3341   -0.5051    0.0784 C   0  0  0  0  0  0  0  0  0  0  0  0
   -0.0286   -0.0086   -0.0129 C   0  0  0  0  0  0  0  0  0  0  0  0
   -1.0308   -0.7982   -0.5517 C   0  0  0  0  0  0  0  0  0  0  0  0
   -0.7521   -2.0809   -1.0013 C   0  0  0  0  0  0  0  0  0  0  0  0
   -1.7582   -2.8500   -1.5200 C   0  0  0  0  0  0  0  0  0  0  0  0
   -3.0325   -2.3376   -1.5876 C   0  0  0  0  0  0  0  0  0  0  0  0
   -3.3090   -1.0551   -1.1387 C   0  0  0  0  0  0  0  0  0  0  0  0
   -2.3018   -0.2802   -0.6168 C   0  0  0  0  0  0  0  0  0  0  0  0
   -2.6030    1.0057   -0.1606 C   0  0  0  0  0  0  0  0  0  0  0  0
   -1.5558    1.7578    0.3713 C   0  0  0  0  0  0  0  0  0  0  0  0
   -1.8071    3.0541    0.8327 C   0  0  0  0  0  0  0  0  0  0  0  0
   -0.7755    3.8032    1.3502 C   0  0  0  0  0  0  0  0  0  0  0  0
    0.5066    3.3047    1.4267 C   0  0  0  0  0  0  0  0  0  0  0  0
    0.7797    2.0332    0.9805 C   0  0  0  0  0  0  0  0  0  0  0  0
   -0.2701    1.2920    0.4622 C   0  0  0  0  0  0  0  0  0  0  0  0
    1.6782   -1.4632    0.9938 C   0  0  0  0  0  0  0  0  0  0  0  0
    2.9714   -1.9746    1.1017 C   0  0  0  0  0  0  0  0  0  0  0  0
    4.9812   -1.9111    0.3461 H   0  0  0  0  0  0  0  0  0  0  0  0
    4.4301   -0.1678   -1.3405 H   0  0  0  0  0  0  0  0  0  0  0  0
    2.1858    0.7034   -1.5201 H   0  0  0  0  0  0  0  0  0  0  0  0
    0.2810   -2.4224   -0.9174 H   0  0  0  0  0  0  0  0  0  0  0  0
   -1.5439   -3.8482   -1.8707 H   0  0  0  0  0  0  0  0  0  0  0  0
   -3.8197   -2.9719   -2.0032 H   0  0  0  0  0  0  0  0  0  0  0  0
   -4.3258   -0.6306   -1.1866 H   0  0  0  0  0  0  0  0  0  0  0  0
   -3.5914    1.4201   -0.2078 H   0  0  0  0  0  0  0  0  0  0  0  0
   -2.8335    3.4080    0.7548 H   0  0  0  0  0  0  0  0  0  0  0  0
   -0.9826    4.8271    1.7117 H   0  0  0  0  0  0  0  0  0  0  0  0
    1.3368    3.8584    1.8224 H   0  0  0  0  0  0  0  0  0  0  0  0
    1.7644    1.5838    1.0124 H   0  0  0  0  0  0  0  0  0  0  0  0
    0.9643   -1.9044    1.7028 H   0  0  0  0  0  0  0  0  0  0  0  0
    3.1704   -2.7339    1.8522 H   0  0  0  0  0  0  0  0  0  0  0  0
  1  2  2  0
  2  3  1  0
  3  4  2  0
  4  5  1  0
  5  6  1  0
  6  7  2  0
  7  8  1  0
  8  9  2  0
  9 10  1  0
 10 11  2  0
 11 12  1  0
 12 13  2  0
 13 14  1  0
 14 15  2  0
 15 16  1  0
 16 17  2  0
 17 18  1  0
  4 19  1  0
 19 20  2  0
 20  1  1  0
 18  5  2  0
 11  6  1  0
 18 13  1  0
  1 21  1  0
  2 22  1  0
  3 23  1  0
  7 24  1  0
  8 25  1  0
  9 26  1  0
 10 27  1  0
 12 28  1  0
 14 29  1  0
 15 30  1  0
 16 31  1  0
 17 32  1  0
 19 33  1  0
 20 34  1  0
M  END
