
     RDKit          3D

 31 32  0  0  0  0  0  0  0  0999 V2000
    5.8272    0.5935    1.2315 C   0  0  0  0  0  0  0  0  0  0  0  0
    4.4594    0.2316    0.7024 C   0  0  0  0  0  0  0  0  0  0  0  0
    4.2943   -0.6344   -0.3328 C   0  0  0  0  0  0  0  0  0  0  0  0
    3.0122   -0.9656   -0.8193 C   0  0  0  0  0  0  0  0  0  0  0  0
    2.8881   -1.8298   -1.8494 O   0  0  0  0  0  0  0  0  0  0  0  0
    1.8855   -0.3972   -0.2313 C   0  0  0  0  0  0  0  0  0  0  0  0
    0.5412   -0.7015   -0.6905 C   0  0  0  0  0  0  0  0  0  0  0  0
    0.4017   -1.5179   -1.6654 O   0  0  0  0  0  0  0  0  0  0  0  0
   -0.6794   -0.1465   -0.1255 C   0  0  0  0  0  0  0  0  0  0  0  0
   -1.8564   -0.5014   -0.6322 C   0  0  0  0  0  0  0  0  0  0  0  0
   -3.1141    0.0001   -0.1330 C   0  0  0  0  0  0  0  0  0  0  0  0
   -4.2666   -0.4657   -0.7688 C   0  0  0  0  0  0  0  0  0  0  0  0
   -5.4801   -0.0091   -0.3195 C   0  0  0  0  0  0  0  0  0  0  0  0
   -5.6159    0.8735    0.7130 C   0  0  0  0  0  0  0  0  0  0  0  0
   -7.1869    1.4101    1.2302 Cl  0  0  0  0  0  0  0  0  0  0  0  0
   -4.4657    1.3081    1.3118 C   0  0  0  0  0  0  0  0  0  0  0  0
   -3.2216    0.8867    0.9063 C   0  0  0  0  0  0  0  0  0  0  0  0
    2.1491    0.4664    0.8084 C   0  0  0  0  0  0  0  0  0  0  0  0
    1.2072    1.0376    1.4134 O   0  0  0  0  0  0  0  0  0  0  0  0
    3.3820    0.7436    1.2274 O   0  0  0  0  0  0  0  0  0  0  0  0
    6.5055   -0.2327    0.9056 H   0  0  0  0  0  0  0  0  0  0  0  0
    5.8098    0.5701    2.3245 H   0  0  0  0  0  0  0  0  0  0  0  0
    6.1036    1.5670    0.7919 H   0  0  0  0  0  0  0  0  0  0  0  0
    5.1600   -1.0847   -0.8006 H   0  0  0  0  0  0  0  0  0  0  0  0
    2.2760   -2.2673   -2.4116 H   0  0  0  0  0  0  0  0  0  0  0  0
   -0.7402    0.5445    0.6863 H   0  0  0  0  0  0  0  0  0  0  0  0
   -1.8387   -1.1992   -1.4552 H   0  0  0  0  0  0  0  0  0  0  0  0
   -4.1796   -1.1602   -1.5827 H   0  0  0  0  0  0  0  0  0  0  0  0
   -6.3641   -0.3964   -0.8427 H   0  0  0  0  0  0  0  0  0  0  0  0
   -4.5255    2.0045    2.1299 H   0  0  0  0  0  0  0  0  0  0  0  0
   -2.3681    1.2724    1.4254 H   0  0  0  0  0  0  0  0  0  0  0  0
  1  2  1  0
  2  3  2  0
  3  4  1  0
  4  5  1  0
  4  6  2  0
  6  7  1  0
  7  8  2  0
  7  9  1  0
  9 10  2  0
 10 11  1  0
 11 12  2  0
 12 13  1  0
 13 14  2  0
 14 15  1  0
 14 16  1  0
 16 17  2  0
  6 18  1  0
 18 19  2  0
 18 20  1  0
 20  2  1  0
 17 11  1  0
  1 21  1  0
  1 22  1  0
  1 23  1  0
  3 24  1  0
  5 25  1  0
  9 26  1  0
 10 27  1  0
 12 28  1  0
 13 29  1  0
 16 30  1  0
 17 31  1  0
M  END
