
     RDKit          3D

 38 39  0  0  0  0  0  0  0  0999 V2000
    3.6193   -2.1029    1.2146 C   0  0  0  0  0  0  0  0  0  0  0  0
    2.8530   -1.0051    0.5639 C   0  0  0  0  0  0  0  0  0  0  0  0
    1.4688   -1.0299    0.6262 C   0  0  0  0  0  0  0  0  0  0  0  0
    0.7345   -0.0269    0.0333 C   0  0  0  0  0  0  0  0  0  0  0  0
   -0.7166   -0.0339    0.0865 C   0  0  0  0  0  0  0  0  0  0  0  0
   -1.4558   -1.2058    0.1084 C   0  0  0  0  0  0  0  0  0  0  0  0
   -2.8399   -1.1843    0.1589 C   0  0  0  0  0  0  0  0  0  0  0  0
   -3.6093   -2.4771    0.1811 C   0  0  0  0  0  0  0  0  0  0  0  0
   -3.5363    0.0074    0.1895 C   0  0  0  0  0  0  0  0  0  0  0  0
   -4.9474    0.0788    0.2411 N   0  0  0  0  0  0  0  0  0  0  0  0
   -2.8146    1.1966    0.1685 C   0  0  0  0  0  0  0  0  0  0  0  0
   -3.5662    2.4817    0.2016 C   0  0  0  0  0  0  0  0  0  0  0  0
   -1.4428    1.1407    0.1182 C   0  0  0  0  0  0  0  0  0  0  0  0
    1.4186    0.9774   -0.6087 C   0  0  0  0  0  0  0  0  0  0  0  0
    2.8082    1.0035   -0.6721 C   0  0  0  0  0  0  0  0  0  0  0  0
    3.5541    2.0892   -1.3660 C   0  0  0  0  0  0  0  0  0  0  0  0
    3.5486    0.0072   -0.0835 C   0  0  0  0  0  0  0  0  0  0  0  0
    4.9639    0.0085   -0.1326 N   0  0  0  0  0  0  0  0  0  0  0  0
    4.6741   -1.8458    1.2968 H   0  0  0  0  0  0  0  0  0  0  0  0
    3.1928   -2.3680    2.2124 H   0  0  0  0  0  0  0  0  0  0  0  0
    3.5295   -2.9963    0.5460 H   0  0  0  0  0  0  0  0  0  0  0  0
    0.9901   -1.8631    1.1562 H   0  0  0  0  0  0  0  0  0  0  0  0
   -0.9741   -2.1537    0.0869 H   0  0  0  0  0  0  0  0  0  0  0  0
   -3.0443   -3.2271   -0.4137 H   0  0  0  0  0  0  0  0  0  0  0  0
   -4.5875   -2.3551   -0.3120 H   0  0  0  0  0  0  0  0  0  0  0  0
   -3.7330   -2.8492    1.2148 H   0  0  0  0  0  0  0  0  0  0  0  0
   -5.5137   -0.5391   -0.3657 H   0  0  0  0  0  0  0  0  0  0  0  0
   -5.4331    0.7368    0.8734 H   0  0  0  0  0  0  0  0  0  0  0  0
   -4.2322    2.4936    1.0996 H   0  0  0  0  0  0  0  0  0  0  0  0
   -2.8824    3.3451    0.3324 H   0  0  0  0  0  0  0  0  0  0  0  0
   -4.1620    2.6391   -0.7243 H   0  0  0  0  0  0  0  0  0  0  0  0
   -0.9050    2.0768    0.1030 H   0  0  0  0  0  0  0  0  0  0  0  0
    0.9179    1.8018   -1.0990 H   0  0  0  0  0  0  0  0  0  0  0  0
    4.2772    2.5862   -0.6744 H   0  0  0  0  0  0  0  0  0  0  0  0
    2.8128    2.8844   -1.6500 H   0  0  0  0  0  0  0  0  0  0  0  0
    4.0687    1.7289   -2.2628 H   0  0  0  0  0  0  0  0  0  0  0  0
    5.5140    0.8090    0.1858 H   0  0  0  0  0  0  0  0  0  0  0  0
    5.4500   -0.8294   -0.5033 H   0  0  0  0  0  0  0  0  0  0  0  0
  1  2  1  0
  2  3  2  0
  3  4  1  0
  4  5  1  0
  5  6  2  0
  6  7  1  0
  7  8  1  0
  7  9  2  0
  9 10  1  0
  9 11  1  0
 11 12  1  0
 11 13  2  0
  4 14  2  0
 14 15  1  0
 15 16  1  0
 15 17  2  0
 17 18  1  0
 17  2  1  0
 13  5  1  0
  1 19  1  0
  1 20  1  0
  1 21  1  0
  3 22  1  0
  6 23  1  0
  8 24  1  0
  8 25  1  0
  8 26  1  0
 10 27  1  0
 10 28  1  0
 12 29  1  0
 12 30  1  0
 12 31  1  0
 13 32  1  0
 14 33  1  0
 16 34  1  0
 16 35  1  0
 16 36  1  0
 18 37  1  0
 18 38  1  0
M  END
