
     RDKit          3D

 61 64  0  0  0  0  0  0  0  0999 V2000
   -3.3708    0.0088   -5.6931 C   0  0  0  0  0  0  0  0  0  0  0  0
   -3.1785    0.4129   -4.3486 O   0  0  0  0  0  0  0  0  0  0  0  0
   -3.5990   -0.3365   -3.2663 C   0  0  0  0  0  0  0  0  0  0  0  0
   -4.1784   -1.4258   -3.4807 O   0  0  0  0  0  0  0  0  0  0  0  0
   -3.3639    0.1485   -1.8849 C   0  0  0  0  0  0  0  0  0  0  0  0
   -3.8823   -0.7877   -0.9058 N   0  0  0  0  0  0  0  0  0  0  0  0
   -4.9026   -0.4076    0.0046 C   0  0  0  0  0  0  0  0  0  0  0  0
   -5.3567    0.7657   -0.0500 O   0  0  0  0  0  0  0  0  0  0  0  0
   -5.4343   -1.2455    0.9536 O   0  0  0  0  0  0  0  0  0  0  0  0
   -6.4428   -0.9119    1.8703 C   0  0  0  0  0  0  0  0  0  0  0  0
   -7.6785   -0.5168    1.0976 C   0  0  0  0  0  0  0  0  0  0  0  0
   -6.7575   -2.1404    2.7366 C   0  0  0  0  0  0  0  0  0  0  0  0
   -6.0751    0.1862    2.8057 C   0  0  0  0  0  0  0  0  0  0  0  0
   -1.9465    0.4764   -1.6404 C   0  0  0  0  0  0  0  0  0  0  0  0
   -1.4581    1.7630   -1.6865 C   0  0  0  0  0  0  0  0  0  0  0  0
   -0.1043    2.0288   -1.4472 C   0  0  0  0  0  0  0  0  0  0  0  0
    0.7600    0.9936   -1.1604 C   0  0  0  0  0  0  0  0  0  0  0  0
    2.0562    0.9197   -0.8948 O   0  0  0  0  0  0  0  0  0  0  0  0
    2.4114   -0.3186   -0.6865 C   0  0  0  0  0  0  0  0  0  0  0  0
    3.7735   -0.7911   -0.3633 C   0  0  0  0  0  0  0  0  0  0  0  0
    4.0313   -2.1299   -0.1653 C   0  0  0  0  0  0  0  0  0  0  0  0
    5.2877   -2.5757    0.1343 C   0  0  0  0  0  0  0  0  0  0  0  0
    6.2992   -1.6433    0.2341 C   0  0  0  0  0  0  0  0  0  0  0  0
    6.0469   -0.2951    0.0361 C   0  0  0  0  0  0  0  0  0  0  0  0
    7.0949    0.5794    0.1496 O   0  0  0  0  0  0  0  0  0  0  0  0
    7.4716    1.1954    1.3254 C   0  0  0  0  0  0  0  0  0  0  0  0
    6.9817    2.4110    1.7540 C   0  0  0  0  0  0  0  0  0  0  0  0
    7.4103    2.9536    2.9383 C   0  0  0  0  0  0  0  0  0  0  0  0
    8.3242    2.3257    3.7304 C   0  0  0  0  0  0  0  0  0  0  0  0
    8.8348    1.1103    3.3334 C   0  0  0  0  0  0  0  0  0  0  0  0
    8.4039    0.5565    2.1350 C   0  0  0  0  0  0  0  0  0  0  0  0
    4.7859    0.1389   -0.2631 C   0  0  0  0  0  0  0  0  0  0  0  0
    1.3109   -1.0792   -0.8204 N   0  0  0  0  0  0  0  0  0  0  0  0
    0.2665   -0.2842   -1.1163 C   0  0  0  0  0  0  0  0  0  0  0  0
   -1.0643   -0.5364   -1.3526 C   0  0  0  0  0  0  0  0  0  0  0  0
   -3.8856   -0.9841   -5.6513 H   0  0  0  0  0  0  0  0  0  0  0  0
   -4.0528    0.6900   -6.2396 H   0  0  0  0  0  0  0  0  0  0  0  0
   -2.3951   -0.1355   -6.2209 H   0  0  0  0  0  0  0  0  0  0  0  0
   -3.9261    1.1180   -1.7439 H   0  0  0  0  0  0  0  0  0  0  0  0
   -3.5341   -1.7696   -0.8280 H   0  0  0  0  0  0  0  0  0  0  0  0
   -8.0552    0.4374    1.4947 H   0  0  0  0  0  0  0  0  0  0  0  0
   -8.4876   -1.2759    1.1960 H   0  0  0  0  0  0  0  0  0  0  0  0
   -7.4083   -0.3313    0.0458 H   0  0  0  0  0  0  0  0  0  0  0  0
   -5.8540   -2.4732    3.2553 H   0  0  0  0  0  0  0  0  0  0  0  0
   -7.5217   -1.8476    3.5071 H   0  0  0  0  0  0  0  0  0  0  0  0
   -7.2294   -2.8985    2.0972 H   0  0  0  0  0  0  0  0  0  0  0  0
   -5.0722    0.0600    3.2653 H   0  0  0  0  0  0  0  0  0  0  0  0
   -6.1836    1.2060    2.3443 H   0  0  0  0  0  0  0  0  0  0  0  0
   -6.8043    0.1719    3.6517 H   0  0  0  0  0  0  0  0  0  0  0  0
   -2.1199    2.5909   -1.9103 H   0  0  0  0  0  0  0  0  0  0  0  0
    0.2959    3.0331   -1.4793 H   0  0  0  0  0  0  0  0  0  0  0  0
    3.2119   -2.8531   -0.2496 H   0  0  0  0  0  0  0  0  0  0  0  0
    5.5222   -3.6294    0.2969 H   0  0  0  0  0  0  0  0  0  0  0  0
    7.2881   -2.0136    0.4718 H   0  0  0  0  0  0  0  0  0  0  0  0
    6.2565    2.9020    1.1183 H   0  0  0  0  0  0  0  0  0  0  0  0
    7.0179    3.9113    3.2666 H   0  0  0  0  0  0  0  0  0  0  0  0
    8.6804    2.7347    4.6737 H   0  0  0  0  0  0  0  0  0  0  0  0
    9.5634    0.5466    3.9036 H   0  0  0  0  0  0  0  0  0  0  0  0
    8.7936   -0.3896    1.8141 H   0  0  0  0  0  0  0  0  0  0  0  0
    4.5516    1.2004   -0.4260 H   0  0  0  0  0  0  0  0  0  0  0  0
   -1.4085   -1.5495   -1.3083 H   0  0  0  0  0  0  0  0  0  0  0  0
  1  2  1  0
  2  3  1  0
  3  4  2  0
  3  5  1  0
  5  6  1  0
  6  7  1  0
  7  8  2  0
  7  9  1  0
  9 10  1  0
 10 11  1  0
 10 12  1  0
 10 13  1  0
  5 14  1  0
 14 15  2  0
 15 16  1  0
 16 17  2  0
 17 18  1  0
 18 19  1  0
 19 20  1  0
 20 21  2  0
 21 22  1  0
 22 23  2  0
 23 24  1  0
 24 25  1  0
 25 26  1  0
 26 27  2  0
 27 28  1  0
 28 29  2  0
 29 30  1  0
 30 31  2  0
 24 32  2  0
 19 33  2  0
 33 34  1  0
 34 35  2  0
 35 14  1  0
 34 17  1  0
 32 20  1  0
 31 26  1  0
  1 36  1  0
  1 37  1  0
  1 38  1  0
  5 39  1  0
  6 40  1  0
 11 41  1  0
 11 42  1  0
 11 43  1  0
 12 44  1  0
 12 45  1  0
 12 46  1  0
 13 47  1  0
 13 48  1  0
 13 49  1  0
 15 50  1  0
 16 51  1  0
 21 52  1  0
 22 53  1  0
 23 54  1  0
 27 55  1  0
 28 56  1  0
 29 57  1  0
 30 58  1  0
 31 59  1  0
 32 60  1  0
 35 61  1  0
M  END
