
     RDKit          3D

 45 48  0  0  0  0  0  0  0  0999 V2000
   -4.6847   -2.2607    1.1873 C   0  0  0  0  0  0  0  0  0  0  0  0
   -3.2366   -1.9754    1.0256 C   0  0  0  0  0  0  0  0  0  0  0  0
   -2.8061   -0.8579    0.4907 N   0  0  0  0  0  4  0  0  0  0  0  0
   -1.4092   -0.9234    0.4956 C   0  0  0  0  0  0  0  0  0  0  0  0
   -0.6603    0.0599    0.0300 C   0  0  0  0  0  0  0  0  0  0  0  0
    0.7891   -0.0478    0.0513 C   0  0  0  0  0  0  0  0  0  0  0  0
    1.3845   -1.1873   -0.4310 C   0  0  0  0  0  0  0  0  0  0  0  0
    2.7641   -1.3622   -0.4168 C   0  0  0  0  0  0  0  0  0  0  0  0
    3.5909   -0.3747    0.0926 C   0  0  0  0  0  0  0  0  0  0  0  0
    4.9904   -0.5416    0.1100 N   0  0  0  0  0  0  0  0  0  0  0  0
    5.5835   -1.7407   -0.4048 C   0  0  0  0  0  0  0  0  0  0  0  0
    5.8251    0.4924    0.6457 C   0  0  0  0  0  0  0  0  0  0  0  0
    2.9653    0.7681    0.5739 C   0  0  0  0  0  0  0  0  0  0  0  0
    1.5988    0.9407    0.5600 C   0  0  0  0  0  0  0  0  0  0  0  0
   -1.2575    1.2905   -0.5353 C   0  0  0  0  0  0  0  0  0  0  0  0
   -0.6525    2.4132   -1.0782 C   0  0  0  0  0  0  0  0  0  0  0  0
   -1.6697    3.2320   -1.4536 C   0  0  0  0  0  0  0  0  0  0  0  0
   -2.8542    2.6252   -1.1487 C   0  0  0  0  0  0  0  0  0  0  0  0
   -4.2328    3.1650   -1.3870 C   0  0  0  0  0  0  0  0  0  0  0  0
   -2.5831    1.4106   -0.5746 N   0  0  0  0  0  0  0  0  0  0  0  0
   -3.5395    0.3497   -0.0600 B   0  0  0  0  0  4  0  0  0  0  0  0
   -4.3889    0.9696    0.9472 F   0  0  0  0  0  0  0  0  0  0  0  0
   -4.3475   -0.0594   -1.2239 F   0  0  0  0  0  0  0  0  0  0  0  0
   -1.0132   -2.2152    1.0980 C   0  0  0  0  0  0  0  0  0  0  0  0
   -2.1360   -2.8325    1.4098 C   0  0  0  0  0  0  0  0  0  0  0  0
   -5.2931   -1.3261    1.1547 H   0  0  0  0  0  0  0  0  0  0  0  0
   -4.9620   -2.9713    0.3784 H   0  0  0  0  0  0  0  0  0  0  0  0
   -4.8223   -2.7056    2.1976 H   0  0  0  0  0  0  0  0  0  0  0  0
    0.8455   -2.0330   -0.8686 H   0  0  0  0  0  0  0  0  0  0  0  0
    3.2410   -2.2527   -0.7927 H   0  0  0  0  0  0  0  0  0  0  0  0
    5.3666   -1.7457   -1.5129 H   0  0  0  0  0  0  0  0  0  0  0  0
    6.6966   -1.7350   -0.3392 H   0  0  0  0  0  0  0  0  0  0  0  0
    5.1323   -2.6674    0.0010 H   0  0  0  0  0  0  0  0  0  0  0  0
    5.5337    0.8032    1.6704 H   0  0  0  0  0  0  0  0  0  0  0  0
    5.6798    1.3990   -0.0077 H   0  0  0  0  0  0  0  0  0  0  0  0
    6.9090    0.2518    0.5760 H   0  0  0  0  0  0  0  0  0  0  0  0
    3.5936    1.5543    0.9766 H   0  0  0  0  0  0  0  0  0  0  0  0
    1.1915    1.8789    0.9710 H   0  0  0  0  0  0  0  0  0  0  0  0
    0.4195    2.5361   -1.1578 H   0  0  0  0  0  0  0  0  0  0  0  0
   -1.5351    4.1986   -1.9163 H   0  0  0  0  0  0  0  0  0  0  0  0
   -4.1829    3.8731   -2.2640 H   0  0  0  0  0  0  0  0  0  0  0  0
   -4.6496    3.6284   -0.4904 H   0  0  0  0  0  0  0  0  0  0  0  0
   -4.9035    2.3452   -1.7023 H   0  0  0  0  0  0  0  0  0  0  0  0
   -0.0094   -2.5667    1.2519 H   0  0  0  0  0  0  0  0  0  0  0  0
   -2.2709   -3.8032    1.8704 H   0  0  0  0  0  0  0  0  0  0  0  0
  1  2  1  0
  2  3  2  0
  3  4  1  0
  4  5  2  0
  5  6  1  0
  6  7  2  0
  7  8  1  0
  8  9  2  0
  9 10  1  0
 10 11  1  0
 10 12  1  0
  9 13  1  0
 13 14  2  0
  5 15  1  0
 15 16  2  0
 16 17  1  0
 17 18  2  0
 18 19  1  0
 18 20  1  0
 20 21  1  0
 21 22  1  0
 21 23  1  0
  4 24  1  0
 24 25  2  0
 25  2  1  0
 21  3  1  0
 14  6  1  0
 20 15  1  0
  1 26  1  0
  1 27  1  0
  1 28  1  0
  7 29  1  0
  8 30  1  0
 11 31  1  0
 11 32  1  0
 11 33  1  0
 12 34  1  0
 12 35  1  0
 12 36  1  0
 13 37  1  0
 14 38  1  0
 16 39  1  0
 17 40  1  0
 19 41  1  0
 19 42  1  0
 19 43  1  0
 24 44  1  0
 25 45  1  0
M  CHG  2   3   1  21  -1
M  END
