
     RDKit          3D

 31 33  0  0  0  0  0  0  0  0999 V2000
   -6.3189    0.5157   -1.1048 C   0  0  0  0  0  0  0  0  0  0  0  0
   -5.7486   -0.1945   -0.0337 O   0  0  0  0  0  0  0  0  0  0  0  0
   -4.3826   -0.2194    0.1061 C   0  0  0  0  0  0  0  0  0  0  0  0
   -3.7809   -0.9082    1.1488 C   0  0  0  0  0  0  0  0  0  0  0  0
   -2.4202   -0.9301    1.2839 C   0  0  0  0  0  0  0  0  0  0  0  0
   -1.6321   -0.2684    0.3861 C   0  0  0  0  0  0  0  0  0  0  0  0
   -0.1579   -0.2950    0.5367 C   0  0  0  0  0  0  0  0  0  0  0  0
    0.5580   -0.9329    1.5141 C   0  0  0  0  0  0  0  0  0  0  0  0
    1.8921   -0.8292    1.4654 C   0  0  0  0  0  0  0  0  0  0  0  0
    2.4270   -0.0950    0.4436 C   0  0  0  0  0  0  0  0  0  0  0  0
    3.8522    0.1728    0.1645 C   0  0  0  0  0  0  0  0  0  0  0  0
    4.9631   -0.2303    0.8322 C   0  0  0  0  0  0  0  0  0  0  0  0
    6.1502    0.1631    0.3532 C   0  0  0  0  0  0  0  0  0  0  0  0
    6.1475    0.9426   -0.7749 C   0  0  0  0  0  0  0  0  0  0  0  0
    7.2928    1.4952   -1.4876 C   0  0  0  0  0  0  0  0  0  0  0  0
    8.1893    1.9473   -2.0617 N   0  0  0  0  0  0  0  0  0  0  0  0
    4.4806    1.0935   -1.1199 S   0  0  0  0  0  0  0  0  0  0  0  0
    1.0510    0.4289   -0.4189 S   0  0  0  0  0  0  0  0  0  0  0  0
   -2.1797    0.4191   -0.6504 C   0  0  0  0  0  0  0  0  0  0  0  0
   -3.5617    0.4362   -0.7802 C   0  0  0  0  0  0  0  0  0  0  0  0
   -6.0256    0.0111   -2.0433 H   0  0  0  0  0  0  0  0  0  0  0  0
   -7.4259    0.4742   -0.9753 H   0  0  0  0  0  0  0  0  0  0  0  0
   -5.9398    1.5574   -1.1773 H   0  0  0  0  0  0  0  0  0  0  0  0
   -4.4532   -1.4184    1.8360 H   0  0  0  0  0  0  0  0  0  0  0  0
   -2.0117   -1.4829    2.1149 H   0  0  0  0  0  0  0  0  0  0  0  0
    0.0192   -1.5076    2.3047 H   0  0  0  0  0  0  0  0  0  0  0  0
    2.5711   -1.3053    2.2059 H   0  0  0  0  0  0  0  0  0  0  0  0
    4.8730   -0.8635    1.7414 H   0  0  0  0  0  0  0  0  0  0  0  0
    7.1311   -0.1019    0.8111 H   0  0  0  0  0  0  0  0  0  0  0  0
   -1.5625    0.9436   -1.3626 H   0  0  0  0  0  0  0  0  0  0  0  0
   -3.9970    0.9820   -1.6033 H   0  0  0  0  0  0  0  0  0  0  0  0
  1  2  1  0
  2  3  1  0
  3  4  2  0
  4  5  1  0
  5  6  2  0
  6  7  1  0
  7  8  2  0
  8  9  1  0
  9 10  2  0
 10 11  1  0
 11 12  2  0
 12 13  1  0
 13 14  2  0
 14 15  1  0
 15 16  3  0
 14 17  1  0
 10 18  1  0
  6 19  1  0
 19 20  2  0
 20  3  1  0
 18  7  1  0
 17 11  1  0
  1 21  1  0
  1 22  1  0
  1 23  1  0
  4 24  1  0
  5 25  1  0
  8 26  1  0
  9 27  1  0
 12 28  1  0
 13 29  1  0
 19 30  1  0
 20 31  1  0
M  END
