
     RDKit          3D

 45 50  0  0  0  0  0  0  0  0999 V2000
    7.5025    0.9411   -1.2484 C   0  0  0  0  0  0  0  0  0  0  0  0
    7.3772   -0.4577   -1.2205 O   0  0  0  0  0  0  0  0  0  0  0  0
    6.0845   -0.9827   -1.0256 C   0  0  0  0  0  0  0  0  0  0  0  0
    5.9602   -2.3202   -0.9983 N   0  0  0  0  0  0  0  0  0  0  0  0
    4.7339   -2.8286   -0.8134 C   0  0  0  0  0  0  0  0  0  0  0  0
    4.4864   -4.5858   -0.7651 Cl  0  0  0  0  0  0  0  0  0  0  0  0
    3.6792   -2.0304   -0.6625 N   0  0  0  0  0  0  0  0  0  0  0  0
    3.7628   -0.7181   -0.6836 C   0  0  0  0  0  0  0  0  0  0  0  0
    2.6795    0.1625   -0.5290 N   0  0  0  0  0  0  0  0  0  0  0  0
    1.3242   -0.1587   -0.3262 C   0  0  0  0  0  0  0  0  0  0  0  0
    0.8951   -1.4605   -0.2538 C   0  0  0  0  0  0  0  0  0  0  0  0
   -0.4438   -1.7676   -0.0535 C   0  0  0  0  0  0  0  0  0  0  0  0
   -1.3818   -0.7811    0.0788 C   0  0  0  0  0  0  0  0  0  0  0  0
   -2.7227   -1.0681    0.2793 C   0  0  0  0  0  0  0  0  0  0  0  0
   -3.1464   -2.3702    0.3509 C   0  0  0  0  0  0  0  0  0  0  0  0
   -4.4959   -2.7240    0.5531 C   0  0  0  0  0  0  0  0  0  0  0  0
   -5.3947   -1.7090    0.6793 C   0  0  0  0  0  0  0  0  0  0  0  0
   -4.9799   -0.3911    0.6090 C   0  0  0  0  0  0  0  0  0  0  0  0
   -5.9113    0.6318    0.7400 C   0  0  0  0  0  0  0  0  0  0  0  0
   -5.5218    1.9471    0.6734 C   0  0  0  0  0  0  0  0  0  0  0  0
   -4.1935    2.2953    0.4743 C   0  0  0  0  0  0  0  0  0  0  0  0
   -3.2639    1.2974    0.3434 C   0  0  0  0  0  0  0  0  0  0  0  0
   -1.9307    1.5868    0.1440 C   0  0  0  0  0  0  0  0  0  0  0  0
   -1.5563    2.9117    0.0796 C   0  0  0  0  0  0  0  0  0  0  0  0
   -0.2288    3.1807   -0.1188 C   0  0  0  0  0  0  0  0  0  0  0  0
    0.7133    2.1703   -0.2515 C   0  0  0  0  0  0  0  0  0  0  0  0
    0.3490    0.8501   -0.1886 C   0  0  0  0  0  0  0  0  0  0  0  0
   -0.9996    0.5563    0.0131 C   0  0  0  0  0  0  0  0  0  0  0  0
   -3.6592   -0.0483    0.4111 C   0  0  0  0  0  0  0  0  0  0  0  0
    5.0201   -0.2086   -0.8731 N   0  0  0  0  0  0  0  0  0  0  0  0
    6.6886    1.3254   -1.9194 H   0  0  0  0  0  0  0  0  0  0  0  0
    8.4574    1.2721   -1.7181 H   0  0  0  0  0  0  0  0  0  0  0  0
    7.3757    1.4114   -0.2593 H   0  0  0  0  0  0  0  0  0  0  0  0
    2.9401    1.1874   -0.5744 H   0  0  0  0  0  0  0  0  0  0  0  0
    1.5935   -2.2710   -0.3518 H   0  0  0  0  0  0  0  0  0  0  0  0
   -0.6740   -2.8070   -0.0123 H   0  0  0  0  0  0  0  0  0  0  0  0
   -2.4350   -3.1605    0.2508 H   0  0  0  0  0  0  0  0  0  0  0  0
   -4.7646   -3.7713    0.6000 H   0  0  0  0  0  0  0  0  0  0  0  0
   -6.4577   -1.9191    0.8382 H   0  0  0  0  0  0  0  0  0  0  0  0
   -6.9476    0.3365    0.8955 H   0  0  0  0  0  0  0  0  0  0  0  0
   -6.2681    2.7477    0.7785 H   0  0  0  0  0  0  0  0  0  0  0  0
   -3.9538    3.3247    0.4319 H   0  0  0  0  0  0  0  0  0  0  0  0
   -2.1928    3.7619    0.1681 H   0  0  0  0  0  0  0  0  0  0  0  0
    0.1536    4.2062   -0.1824 H   0  0  0  0  0  0  0  0  0  0  0  0
    1.7473    2.4352   -0.4064 H   0  0  0  0  0  0  0  0  0  0  0  0
  1  2  1  0
  2  3  1  0
  3  4  2  0
  4  5  1  0
  5  6  1  0
  5  7  2  0
  7  8  1  0
  8  9  1  0
  9 10  1  0
 10 11  2  0
 11 12  1  0
 12 13  2  0
 13 14  1  0
 14 15  2  0
 15 16  1  0
 16 17  2  0
 17 18  1  0
 18 19  2  0
 19 20  1  0
 20 21  2  0
 21 22  1  0
 22 23  1  0
 23 24  1  0
 24 25  2  0
 25 26  1  0
 26 27  2  0
 27 28  1  0
 22 29  2  0
  8 30  2  0
 30  3  1  0
 27 10  1  0
 28 13  1  0
 29 14  1  0
 29 18  1  0
 28 23  2  0
  1 31  1  0
  1 32  1  0
  1 33  1  0
  9 34  1  0
 11 35  1  0
 12 36  1  0
 15 37  1  0
 16 38  1  0
 17 39  1  0
 19 40  1  0
 20 41  1  0
 21 42  1  0
 24 43  1  0
 25 44  1  0
 26 45  1  0
M  END
