
     RDKit          3D

 25 25  0  0  0  0  0  0  0  0999 V2000
   -2.8233   -2.4505   -0.7661 C   0  0  0  0  0  0  0  0  0  0  0  0
   -3.1807   -1.1377   -0.3883 O   0  0  0  0  0  0  0  0  0  0  0  0
   -2.1603   -0.2028   -0.1877 C   0  0  0  0  0  0  0  0  0  0  0  0
   -0.8550   -0.5785   -0.3605 C   0  0  0  0  0  0  0  0  0  0  0  0
    0.1886    0.3361   -0.1667 C   0  0  0  0  0  0  0  0  0  0  0  0
    1.5491   -0.1350   -0.3685 C   0  0  0  0  0  0  0  0  0  0  0  0
    2.5931    0.6214   -0.2180 C   0  0  0  0  0  0  0  0  0  0  0  0
    3.9629    0.0628   -0.4442 C   0  0  0  0  0  0  0  0  0  0  0  0
    4.6758    0.1850    0.7232 O   0  0  0  0  0  0  0  0  0  0  0  0
   -0.1239    1.6135    0.1991 C   0  0  0  0  0  0  0  0  0  0  0  0
   -1.4555    1.9830    0.3716 C   0  0  0  0  0  0  0  0  0  0  0  0
   -2.4795    1.0882    0.1821 C   0  0  0  0  0  0  0  0  0  0  0  0
   -3.8192    1.4136    0.3431 O   0  0  0  0  0  0  0  0  0  0  0  0
   -2.1670   -2.4020   -1.6725 H   0  0  0  0  0  0  0  0  0  0  0  0
   -2.2240   -2.9619    0.0144 H   0  0  0  0  0  0  0  0  0  0  0  0
   -3.7804   -2.9859   -0.9752 H   0  0  0  0  0  0  0  0  0  0  0  0
   -0.5824   -1.6037   -0.6552 H   0  0  0  0  0  0  0  0  0  0  0  0
    1.7376   -1.1764   -0.6631 H   0  0  0  0  0  0  0  0  0  0  0  0
    2.4961    1.6460    0.0670 H   0  0  0  0  0  0  0  0  0  0  0  0
    4.3999    0.5942   -1.3068 H   0  0  0  0  0  0  0  0  0  0  0  0
    3.8898   -1.0017   -0.7166 H   0  0  0  0  0  0  0  0  0  0  0  0
    5.2584   -0.6090    0.8237 H   0  0  0  0  0  0  0  0  0  0  0  0
    0.6717    2.3506    0.3577 H   0  0  0  0  0  0  0  0  0  0  0  0
   -1.7080    2.9840    0.6586 H   0  0  0  0  0  0  0  0  0  0  0  0
   -4.0636    2.3666    0.6166 H   0  0  0  0  0  0  0  0  0  0  0  0
  1  2  1  0
  2  3  1  0
  3  4  2  0
  4  5  1  0
  5  6  1  0
  6  7  2  0
  7  8  1  0
  8  9  1  0
  5 10  2  0
 10 11  1  0
 11 12  2  0
 12 13  1  0
 12  3  1  0
  1 14  1  0
  1 15  1  0
  1 16  1  0
  4 17  1  0
  6 18  1  0
  7 19  1  0
  8 20  1  0
  8 21  1  0
  9 22  1  0
 10 23  1  0
 11 24  1  0
 13 25  1  0
M  END
