
     RDKit          3D

 33 36  0  0  0  0  0  0  0  0999 V2000
   -4.6071   -1.3833   -1.7373 N   0  0  0  0  0  0  0  0  0  0  0  0
   -3.5093   -1.0805   -1.4687 C   0  0  0  0  0  0  0  0  0  0  0  0
   -2.1545   -0.6943   -1.1575 C   0  0  0  0  0  0  0  0  0  0  0  0
   -1.1546   -1.5547   -1.2144 C   0  0  0  0  0  0  0  0  0  0  0  0
   -1.2329   -2.9458   -1.5748 N   0  0  0  0  0  0  0  0  0  0  0  0
    0.0632   -0.9062   -0.8592 N   0  0  0  0  0  0  0  0  0  0  0  0
    1.3324   -1.4192   -0.7865 C   0  0  0  0  0  0  0  0  0  0  0  0
    1.5767   -2.6253   -1.0495 O   0  0  0  0  0  0  0  0  0  0  0  0
    2.4086   -0.6414   -0.4214 C   0  0  0  0  0  0  0  0  0  0  0  0
    3.6979   -1.1370   -0.3410 C   0  0  0  0  0  0  0  0  0  0  0  0
    4.7676   -0.3464    0.0263 C   0  0  0  0  0  0  0  0  0  0  0  0
    4.4898    0.9742    0.3127 C   0  0  0  0  0  0  0  0  0  0  0  0
    3.2027    1.4761    0.2342 C   0  0  0  0  0  0  0  0  0  0  0  0
    2.1356    0.6796   -0.1341 C   0  0  0  0  0  0  0  0  0  0  0  0
    0.8479    1.1583   -0.2184 C   0  0  0  0  0  0  0  0  0  0  0  0
    0.5894    2.3616    0.0417 O   0  0  0  0  0  0  0  0  0  0  0  0
   -0.2001    0.3539   -0.5857 N   0  0  0  0  0  0  0  0  0  0  0  0
   -1.6055    0.5894   -0.7494 C   0  0  0  0  0  0  0  0  0  0  0  0
   -2.2391    1.1364    0.4848 C   0  0  0  0  0  0  0  0  0  0  0  0
   -2.8115    0.4630    1.5343 C   0  0  0  0  0  0  0  0  0  0  0  0
   -3.3147    1.1970    2.5312 C   0  0  0  0  0  0  0  0  0  0  0  0
   -3.2227    2.5574    2.4327 C   0  0  0  0  0  0  0  0  0  0  0  0
   -2.4288    2.7705    0.9366 S   0  0  0  0  0  0  0  0  0  0  0  0
   -1.6034   -3.6134   -0.8609 H   0  0  0  0  0  0  0  0  0  0  0  0
   -0.9481   -3.3161   -2.4850 H   0  0  0  0  0  0  0  0  0  0  0  0
    3.8758   -2.1933   -0.5771 H   0  0  0  0  0  0  0  0  0  0  0  0
    5.7847   -0.7470    0.0873 H   0  0  0  0  0  0  0  0  0  0  0  0
    5.2977    1.6299    0.6047 H   0  0  0  0  0  0  0  0  0  0  0  0
    2.9712    2.5194    0.4586 H   0  0  0  0  0  0  0  0  0  0  0  0
   -1.8022    1.3348   -1.5461 H   0  0  0  0  0  0  0  0  0  0  0  0
   -2.8245   -0.6512    1.4966 H   0  0  0  0  0  0  0  0  0  0  0  0
   -3.7977    0.7430    3.4233 H   0  0  0  0  0  0  0  0  0  0  0  0
   -3.5844    3.3107    3.1619 H   0  0  0  0  0  0  0  0  0  0  0  0
  1  2  3  0
  2  3  1  0
  3  4  2  0
  4  5  1  0
  4  6  1  0
  6  7  1  0
  7  8  2  0
  7  9  1  0
  9 10  2  0
 10 11  1  0
 11 12  2  0
 12 13  1  0
 13 14  2  0
 14 15  1  0
 15 16  2  0
 15 17  1  0
 17 18  1  0
 18 19  1  0
 19 20  2  0
 20 21  1  0
 21 22  2  0
 22 23  1  0
 18  3  1  0
 23 19  1  0
 17  6  1  0
 14  9  1  0
  5 24  1  0
  5 25  1  0
 10 26  1  0
 11 27  1  0
 12 28  1  0
 13 29  1  0
 18 30  1  0
 20 31  1  0
 21 32  1  0
 22 33  1  0
M  END
