
     RDKit          3D

 33 36  0  0  0  0  0  0  0  0999 V2000
   -1.3408    2.0309   -1.6189 O   0  0  0  0  0  0  0  0  0  0  0  0
   -0.4496    1.3668   -1.0448 C   0  0  0  0  0  0  0  0  0  0  0  0
    0.9614    1.5056   -1.0978 N   0  0  0  0  0  0  0  0  0  0  0  0
    1.5718    0.4956   -0.2586 C   0  0  0  0  0  0  0  0  0  0  0  0
    2.9973    0.3245   -0.0794 C   0  0  0  0  0  0  0  0  0  0  0  0
    3.8168    0.3645   -1.1905 C   0  0  0  0  0  0  0  0  0  0  0  0
    5.1684    0.2092   -1.1318 C   0  0  0  0  0  0  0  0  0  0  0  0
    5.7250    0.0026    0.1171 C   0  0  0  0  0  0  0  0  0  0  0  0
    4.9517   -0.0446    1.2573 C   0  0  0  0  0  0  0  0  0  0  0  0
    3.5688    0.1196    1.1490 C   0  0  0  0  0  0  0  0  0  0  0  0
    0.5970   -0.2242    0.2830 C   0  0  0  0  0  0  0  0  0  0  0  0
    0.3727   -1.3426    1.1777 C   0  0  0  0  0  0  0  0  0  0  0  0
    1.2708   -1.9981    1.7483 O   0  0  0  0  0  0  0  0  0  0  0  0
   -1.0275   -1.4938    1.2390 O   0  0  0  0  0  0  0  0  0  0  0  0
   -1.6190   -0.5305    0.4335 C   0  0  0  0  0  0  0  0  0  0  0  0
   -3.0665   -0.4182    0.2739 C   0  0  0  0  0  0  0  0  0  0  0  0
   -3.7327    0.7839    0.3284 C   0  0  0  0  0  0  0  0  0  0  0  0
   -5.1161    0.8798    0.1520 C   0  0  0  0  0  0  0  0  0  0  0  0
   -5.8048   -0.2695   -0.0791 C   0  0  0  0  0  0  0  0  0  0  0  0
   -5.1915   -1.4990   -0.1429 C   0  0  0  0  0  0  0  0  0  0  0  0
   -3.8376   -1.5611    0.0325 C   0  0  0  0  0  0  0  0  0  0  0  0
   -0.7157    0.2339   -0.1412 C   0  0  0  0  0  0  0  0  0  0  0  0
    1.4526    2.2340   -1.6728 H   0  0  0  0  0  0  0  0  0  0  0  0
    3.3403    0.5260   -2.1536 H   0  0  0  0  0  0  0  0  0  0  0  0
    5.8175    0.2429   -1.9969 H   0  0  0  0  0  0  0  0  0  0  0  0
    6.7885   -0.1205    0.1730 H   0  0  0  0  0  0  0  0  0  0  0  0
    5.3605   -0.2065    2.2460 H   0  0  0  0  0  0  0  0  0  0  0  0
    2.9960    0.0806    2.0591 H   0  0  0  0  0  0  0  0  0  0  0  0
   -3.1929    1.7011    0.5158 H   0  0  0  0  0  0  0  0  0  0  0  0
   -5.6321    1.8135    0.1910 H   0  0  0  0  0  0  0  0  0  0  0  0
   -6.9003   -0.2824   -0.2269 H   0  0  0  0  0  0  0  0  0  0  0  0
   -5.7984   -2.4059   -0.3365 H   0  0  0  0  0  0  0  0  0  0  0  0
   -3.3315   -2.5182   -0.0110 H   0  0  0  0  0  0  0  0  0  0  0  0
  1  2  2  0
  2  3  1  0
  3  4  1  0
  4  5  1  0
  5  6  2  0
  6  7  1  0
  7  8  2  0
  8  9  1  0
  9 10  2  0
  4 11  2  0
 11 12  1  0
 12 13  2  0
 12 14  1  0
 14 15  1  0
 15 16  1  0
 16 17  2  0
 17 18  1  0
 18 19  2  0
 19 20  1  0
 20 21  2  0
 15 22  2  0
 22  2  1  0
 10  5  1  0
 22 11  1  0
 21 16  1  0
  3 23  1  0
  6 24  1  0
  7 25  1  0
  8 26  1  0
  9 27  1  0
 10 28  1  0
 17 29  1  0
 18 30  1  0
 19 31  1  0
 20 32  1  0
 21 33  1  0
M  END
