
     RDKit          3D

 65 72  0  0  0  0  0  0  0  0999 V2000
   -0.2649    1.6090   -3.9710 O   0  0  0  0  0  0  0  0  0  0  0  0
   -0.2201    0.3228   -3.1700 S   0  0  0  0  0  6  0  0  0  0  0  0
   -0.1745   -0.8120   -4.1472 O   0  0  0  0  0  0  0  0  0  0  0  0
   -1.6026    0.1464   -2.1482 C   0  0  0  0  0  0  0  0  0  0  0  0
   -2.2214    1.2679   -1.6414 C   0  0  0  0  0  0  0  0  0  0  0  0
   -3.3212    1.1405   -0.8283 C   0  0  0  0  0  0  0  0  0  0  0  0
   -3.7848   -0.1410   -0.5361 C   0  0  0  0  0  0  0  0  0  0  0  0
   -3.1501   -1.2476   -1.0541 C   0  0  0  0  0  0  0  0  0  0  0  0
   -2.0588   -1.1180   -1.8608 C   0  0  0  0  0  0  0  0  0  0  0  0
   -3.8272   -2.3555   -0.5960 C   0  0  0  0  0  0  0  0  0  0  0  0
   -3.6741   -3.7078   -0.7656 C   0  0  0  0  0  0  0  0  0  0  0  0
   -4.5306   -4.6225   -0.1659 C   0  0  0  0  0  0  0  0  0  0  0  0
   -5.5497   -4.1463    0.6122 C   0  0  0  0  0  0  0  0  0  0  0  0
   -5.7170   -2.8049    0.7919 C   0  0  0  0  0  0  0  0  0  0  0  0
   -4.8679   -1.8790    0.1982 C   0  0  0  0  0  0  0  0  0  0  0  0
   -4.8251   -0.5358    0.2217 N   0  0  0  0  0  0  0  0  0  0  0  0
   -5.7017    0.3450    0.9100 C   0  0  0  0  0  0  0  0  0  0  0  0
   -5.3693    0.7032    2.2001 C   0  0  0  0  0  0  0  0  0  0  0  0
   -6.2016    1.5672    2.9156 C   0  0  0  0  0  0  0  0  0  0  0  0
   -7.3576    2.0756    2.3598 C   0  0  0  0  0  0  0  0  0  0  0  0
   -7.6712    1.7047    1.0685 C   0  0  0  0  0  0  0  0  0  0  0  0
   -6.8534    0.8490    0.3503 C   0  0  0  0  0  0  0  0  0  0  0  0
    1.2856    0.3386   -2.2740 C   0  0  0  0  0  0  0  0  0  0  0  0
    1.9636   -0.8438   -2.0201 C   0  0  0  0  0  0  0  0  0  0  0  0
    3.1350   -0.9110   -1.3335 C   0  0  0  0  0  0  0  0  0  0  0  0
    3.6847    0.2722   -0.8589 C   0  0  0  0  0  0  0  0  0  0  0  0
    3.0271    1.4597   -1.1000 C   0  0  0  0  0  0  0  0  0  0  0  0
    1.8378    1.5115   -1.7992 C   0  0  0  0  0  0  0  0  0  0  0  0
    3.8147    2.4554   -0.5078 C   0  0  0  0  0  0  0  0  0  0  0  0
    3.6664    3.8025   -0.4269 C   0  0  0  0  0  0  0  0  0  0  0  0
    4.6341    4.5278    0.2379 C   0  0  0  0  0  0  0  0  0  0  0  0
    5.7306    3.8985    0.8095 C   0  0  0  0  0  0  0  0  0  0  0  0
    5.8867    2.5439    0.7324 C   0  0  0  0  0  0  0  0  0  0  0  0
    4.9019    1.8244    0.0581 C   0  0  0  0  0  0  0  0  0  0  0  0
    4.8286    0.4987   -0.1518 N   0  0  0  0  0  0  0  0  0  0  0  0
    5.7503   -0.4894    0.2704 C   0  0  0  0  0  0  0  0  0  0  0  0
    5.3084   -1.5633    1.0161 C   0  0  0  0  0  0  0  0  0  0  0  0
    6.2083   -2.5253    1.4266 C   0  0  0  0  0  0  0  0  0  0  0  0
    7.5582   -2.4306    1.1002 C   0  0  0  0  0  0  0  0  0  0  0  0
    7.9645   -1.3391    0.3509 C   0  0  0  0  0  0  0  0  0  0  0  0
    7.0822   -0.3657   -0.0701 C   0  0  0  0  0  0  0  0  0  0  0  0
   -1.8558    2.2634   -1.8723 H   0  0  0  0  0  0  0  0  0  0  0  0
   -3.7969    2.0268   -0.4377 H   0  0  0  0  0  0  0  0  0  0  0  0
   -1.5882   -1.9999   -2.2473 H   0  0  0  0  0  0  0  0  0  0  0  0
   -2.8752   -4.0771   -1.3753 H   0  0  0  0  0  0  0  0  0  0  0  0
   -4.3445   -5.6727   -0.3476 H   0  0  0  0  0  0  0  0  0  0  0  0
   -6.2216   -4.8335    1.0840 H   0  0  0  0  0  0  0  0  0  0  0  0
   -6.5095   -2.4277    1.3973 H   0  0  0  0  0  0  0  0  0  0  0  0
   -4.4842    0.3345    2.6718 H   0  0  0  0  0  0  0  0  0  0  0  0
   -5.9634    1.8626    3.9268 H   0  0  0  0  0  0  0  0  0  0  0  0
   -8.0081    2.7362    2.8861 H   0  0  0  0  0  0  0  0  0  0  0  0
   -8.5656    2.0762    0.5895 H   0  0  0  0  0  0  0  0  0  0  0  0
   -7.0842    0.5450   -0.6692 H   0  0  0  0  0  0  0  0  0  0  0  0
    1.5194   -1.7724   -2.4001 H   0  0  0  0  0  0  0  0  0  0  0  0
    3.6844   -1.8149   -1.1210 H   0  0  0  0  0  0  0  0  0  0  0  0
    1.3444    2.4649   -1.9722 H   0  0  0  0  0  0  0  0  0  0  0  0
    2.7987    4.2638   -0.8839 H   0  0  0  0  0  0  0  0  0  0  0  0
    4.5332    5.6078    0.3133 H   0  0  0  0  0  0  0  0  0  0  0  0
    6.4792    4.4863    1.3272 H   0  0  0  0  0  0  0  0  0  0  0  0
    6.7232    2.0039    1.1610 H   0  0  0  0  0  0  0  0  0  0  0  0
    4.2764   -1.7063    1.3090 H   0  0  0  0  0  0  0  0  0  0  0  0
    5.8553   -3.3712    2.0149 H   0  0  0  0  0  0  0  0  0  0  0  0
    8.2613   -3.1870    1.4237 H   0  0  0  0  0  0  0  0  0  0  0  0
    9.0162   -1.2889    0.1111 H   0  0  0  0  0  0  0  0  0  0  0  0
    7.4815    0.4545   -0.6518 H   0  0  0  0  0  0  0  0  0  0  0  0
  1  2  2  0
  2  3  2  0
  2  4  1  0
  4  5  2  0
  5  6  1  0
  6  7  2  0
  7  8  1  0
  8  9  2  0
  8 10  1  0
 10 11  2  0
 11 12  1  0
 12 13  2  0
 13 14  1  0
 14 15  2  0
 15 16  1  0
 16 17  1  0
 17 18  2  0
 18 19  1  0
 19 20  2  0
 20 21  1  0
 21 22  2  0
  2 23  1  0
 23 24  2  0
 24 25  1  0
 25 26  2  0
 26 27  1  0
 27 28  2  0
 27 29  1  0
 29 30  2  0
 30 31  1  0
 31 32  2  0
 32 33  1  0
 33 34  2  0
 34 35  1  0
 35 36  1  0
 36 37  2  0
 37 38  1  0
 38 39  2  0
 39 40  1  0
 40 41  2  0
  9  4  1  0
 15 10  1  0
 22 17  1  0
 28 23  1  0
 34 29  1  0
 41 36  1  0
 16  7  1  0
 35 26  1  0
  5 42  1  0
  6 43  1  0
  9 44  1  0
 11 45  1  0
 12 46  1  0
 13 47  1  0
 14 48  1  0
 18 49  1  0
 19 50  1  0
 20 51  1  0
 21 52  1  0
 22 53  1  0
 24 54  1  0
 25 55  1  0
 28 56  1  0
 30 57  1  0
 31 58  1  0
 32 59  1  0
 33 60  1  0
 37 61  1  0
 38 62  1  0
 39 63  1  0
 40 64  1  0
 41 65  1  0
M  END
