
     RDKit          3D

 38 41  0  0  0  0  0  0  0  0999 V2000
   -3.6895    2.2746    0.0925 C   0  0  0  0  0  0  0  0  0  0  0  0
   -2.5129    1.5000    0.0602 O   0  0  0  0  0  0  0  0  0  0  0  0
   -2.4440    0.1612    0.0235 C   0  0  0  0  0  0  0  0  0  0  0  0
   -3.6817   -0.4982    0.0164 C   0  0  0  0  0  0  0  0  0  0  0  0
   -3.7347   -1.8643   -0.0218 C   0  0  0  0  0  0  0  0  0  0  0  0
   -2.5931   -2.6109   -0.0537 C   0  0  0  0  0  0  0  0  0  0  0  0
   -1.3490   -1.9710   -0.0470 C   0  0  0  0  0  0  0  0  0  0  0  0
   -0.2122   -2.7383   -0.0837 C   0  0  0  0  0  0  0  0  0  0  0  0
    1.0337   -2.1691   -0.0830 C   0  0  0  0  0  0  0  0  0  0  0  0
    2.2527   -3.0020   -0.1231 C   0  0  0  0  0  0  0  0  0  0  0  0
    1.1087   -0.8121   -0.0442 C   0  0  0  0  0  0  0  0  0  0  0  0
    2.2228   -0.0079   -0.0327 C   0  0  0  0  0  0  0  0  0  0  0  0
    3.5621   -0.2771   -0.0590 C   0  0  0  0  0  0  0  0  0  0  0  0
    4.4343    0.7917   -0.0380 C   0  0  0  0  0  0  0  0  0  0  0  0
    4.0136    2.1006    0.0078 C   0  0  0  0  0  0  0  0  0  0  0  0
    2.6363    2.3136    0.0329 C   0  0  0  0  0  0  0  0  0  0  0  0
    1.7391    1.2757    0.0132 C   0  0  0  0  0  0  0  0  0  0  0  0
    0.3638    1.2770    0.0302 N   0  0  0  0  0  0  0  0  0  0  0  0
   -0.3740    2.4911    0.0899 C   0  0  0  0  0  0  0  0  0  0  0  0
   -0.0451    0.0071   -0.0056 C   0  0  0  0  0  0  0  0  0  0  0  0
   -1.3141   -0.5872   -0.0077 C   0  0  0  0  0  0  0  0  0  0  0  0
   -3.3641    3.3176    0.3749 H   0  0  0  0  0  0  0  0  0  0  0  0
   -4.1803    2.3181   -0.8776 H   0  0  0  0  0  0  0  0  0  0  0  0
   -4.3333    1.9265    0.9260 H   0  0  0  0  0  0  0  0  0  0  0  0
   -4.5784    0.1009    0.0417 H   0  0  0  0  0  0  0  0  0  0  0  0
   -4.7001   -2.3518   -0.0263 H   0  0  0  0  0  0  0  0  0  0  0  0
   -2.6352   -3.6741   -0.0836 H   0  0  0  0  0  0  0  0  0  0  0  0
   -0.3238   -3.8092   -0.1132 H   0  0  0  0  0  0  0  0  0  0  0  0
    2.8496   -2.9914    0.8038 H   0  0  0  0  0  0  0  0  0  0  0  0
    2.8307   -2.9470   -1.0470 H   0  0  0  0  0  0  0  0  0  0  0  0
    1.8586   -4.0855   -0.1512 H   0  0  0  0  0  0  0  0  0  0  0  0
    4.0010   -1.2417   -0.0945 H   0  0  0  0  0  0  0  0  0  0  0  0
    5.4995    0.6306   -0.0572 H   0  0  0  0  0  0  0  0  0  0  0  0
    4.7010    2.9407    0.0243 H   0  0  0  0  0  0  0  0  0  0  0  0
    2.3307    3.3454    0.0676 H   0  0  0  0  0  0  0  0  0  0  0  0
    0.3960    3.3553    0.1880 H   0  0  0  0  0  0  0  0  0  0  0  0
   -0.8901    2.6882    1.0776 H   0  0  0  0  0  0  0  0  0  0  0  0
   -0.8782    2.8228   -0.8205 H   0  0  0  0  0  0  0  0  0  0  0  0
  1  2  1  0
  2  3  1  0
  3  4  2  0
  4  5  1  0
  5  6  2  0
  6  7  1  0
  7  8  2  0
  8  9  1  0
  9 10  1  0
  9 11  2  0
 11 12  1  0
 12 13  2  0
 13 14  1  0
 14 15  2  0
 15 16  1  0
 16 17  2  0
 17 18  1  0
 18 19  1  0
 18 20  1  0
 20 21  2  0
 21  3  1  0
 21  7  1  0
 20 11  1  0
 17 12  1  0
  1 22  1  0
  1 23  1  0
  1 24  1  0
  4 25  1  0
  5 26  1  0
  6 27  1  0
  8 28  1  0
 10 29  1  0
 10 30  1  0
 10 31  1  0
 13 32  1  0
 14 33  1  0
 15 34  1  0
 16 35  1  0
 19 36  1  0
 19 37  1  0
 19 38  1  0
M  END
