
     RDKit          3D

 32 35  0  0  0  0  0  0  0  0999 V2000
    2.3420    2.6480   -0.1345 O   0  0  0  0  0  0  0  0  0  0  0  0
    1.3069    1.9391   -0.0603 C   0  0  0  0  0  0  0  0  0  0  0  0
    0.1456    2.5857   -0.1299 O   0  0  0  0  0  0  0  0  0  0  0  0
   -0.9679    1.8947   -0.0577 C   0  0  0  0  0  0  0  0  0  0  0  0
   -2.1665    2.5724   -0.1307 C   0  0  0  0  0  0  0  0  0  0  0  0
   -3.3877    1.9198   -0.0627 C   0  0  0  0  0  0  0  0  0  0  0  0
   -3.4263    0.5363    0.0840 C   0  0  0  0  0  0  0  0  0  0  0  0
   -4.6399   -0.1163    0.1520 C   0  0  0  0  0  0  0  0  0  0  0  0
   -4.6410   -1.4787    0.2964 C   0  0  0  0  0  0  0  0  0  0  0  0
   -3.4311   -2.1712    0.3710 C   0  0  0  0  0  0  0  0  0  0  0  0
   -2.2283   -1.4999    0.3010 C   0  0  0  0  0  0  0  0  0  0  0  0
   -2.2152   -0.1357    0.1563 C   0  0  0  0  0  0  0  0  0  0  0  0
   -1.0071    0.5239    0.0876 C   0  0  0  0  0  0  0  0  0  0  0  0
    0.1929   -0.1126    0.1562 N   0  0  0  0  0  0  0  0  0  0  0  0
    1.3516    0.5696    0.0849 C   0  0  0  0  0  0  0  0  0  0  0  0
    2.6399   -0.1052    0.1577 C   0  0  0  0  0  0  0  0  0  0  0  0
    3.6472    0.4189    0.9636 C   0  0  0  0  0  0  0  0  0  0  0  0
    4.8870   -0.1705    1.0764 C   0  0  0  0  0  0  0  0  0  0  0  0
    5.1594   -1.3275    0.3693 C   0  0  0  0  0  0  0  0  0  0  0  0
    4.1498   -1.8473   -0.4346 C   0  0  0  0  0  0  0  0  0  0  0  0
    2.9119   -1.2520   -0.5422 C   0  0  0  0  0  0  0  0  0  0  0  0
   -2.1412    3.6478   -0.2447 H   0  0  0  0  0  0  0  0  0  0  0  0
   -4.3213    2.4859   -0.1236 H   0  0  0  0  0  0  0  0  0  0  0  0
   -5.5622    0.4719    0.0888 H   0  0  0  0  0  0  0  0  0  0  0  0
   -5.5700   -2.0061    0.3515 H   0  0  0  0  0  0  0  0  0  0  0  0
   -3.4638   -3.2473    0.4850 H   0  0  0  0  0  0  0  0  0  0  0  0
   -1.2864   -2.0125    0.3562 H   0  0  0  0  0  0  0  0  0  0  0  0
    3.4064    1.3237    1.5046 H   0  0  0  0  0  0  0  0  0  0  0  0
    5.6693    0.2448    1.7082 H   0  0  0  0  0  0  0  0  0  0  0  0
    6.1066   -1.8430    0.4090 H   0  0  0  0  0  0  0  0  0  0  0  0
    4.3719   -2.7559   -0.9862 H   0  0  0  0  0  0  0  0  0  0  0  0
    2.1675   -1.7007   -1.1816 H   0  0  0  0  0  0  0  0  0  0  0  0
  1  2  2  0
  2  3  1  0
  3  4  1  0
  4  5  2  0
  5  6  1  0
  6  7  2  0
  7  8  1  0
  8  9  2  0
  9 10  1  0
 10 11  2  0
 11 12  1  0
 12 13  2  0
 13 14  1  0
 14 15  2  0
 15 16  1  0
 16 17  2  0
 17 18  1  0
 18 19  2  0
 19 20  1  0
 20 21  2  0
 15  2  1  0
 21 16  1  0
 13  4  1  0
 12  7  1  0
  5 22  1  0
  6 23  1  0
  8 24  1  0
  9 25  1  0
 10 26  1  0
 11 27  1  0
 17 28  1  0
 18 29  1  0
 19 30  1  0
 20 31  1  0
 21 32  1  0
M  END
