
     RDKit          3D

 42 43  0  0  0  0  0  0  0  0999 V2000
    7.3668    0.0029   -0.8114 C   0  0  0  0  0  0  0  0  0  0  0  0
    6.5074    0.3739   -1.9699 C   0  0  0  0  0  0  0  0  0  0  0  0
    5.1452    0.2934   -1.8338 O   0  0  0  0  0  0  0  0  0  0  0  0
    4.3318   -0.7712   -1.5156 C   0  0  0  0  0  0  0  0  0  0  0  0
    4.9627   -1.8643   -1.2594 O   0  0  0  0  0  0  0  0  0  0  0  0
    2.9532   -0.6773   -1.4896 N   0  0  0  0  0  0  0  0  0  0  0  0
    2.1289   -0.4436   -0.5649 C   0  0  0  0  0  0  0  0  0  0  0  0
    0.8157   -0.4090   -0.8182 O   0  0  0  0  0  0  0  0  0  0  0  0
   -0.0908   -0.1722    0.0947 C   0  0  0  0  0  0  0  0  0  0  0  0
   -1.4429   -0.1556   -0.2605 C   0  0  0  0  0  0  0  0  0  0  0  0
   -2.4297    0.0916    0.6780 C   0  0  0  0  0  0  0  0  0  0  0  0
   -3.8035    0.1044    0.3237 N   0  0  0  0  0  0  0  0  0  0  0  0
   -4.8875    0.2982    1.2531 C   0  0  0  0  0  0  0  0  0  0  0  0
   -5.5448    1.6371    0.9871 C   0  0  0  0  0  0  0  0  0  0  0  0
   -4.2530   -0.0881   -1.0679 C   0  0  0  0  0  0  0  0  0  0  0  0
   -4.9576   -1.4242   -1.1588 C   0  0  0  0  0  0  0  0  0  0  0  0
   -1.9888    0.3147    1.9528 C   0  0  0  0  0  0  0  0  0  0  0  0
   -0.6633    0.3048    2.3361 C   0  0  0  0  0  0  0  0  0  0  0  0
    0.3079    0.0558    1.3862 C   0  0  0  0  0  0  0  0  0  0  0  0
    1.6415    0.0359    1.7235 C   0  0  0  0  0  0  0  0  0  0  0  0
    2.5566   -0.2214    0.7099 C   0  0  0  0  0  0  0  0  0  0  0  0
    3.9651   -0.2416    1.0463 C   0  0  0  0  0  0  0  0  0  0  0  0
    5.0808   -0.2732    1.3147 N   0  0  0  0  0  0  0  0  0  0  0  0
    7.0978   -1.0109   -0.4397 H   0  0  0  0  0  0  0  0  0  0  0  0
    8.4551   -0.0421   -1.0944 H   0  0  0  0  0  0  0  0  0  0  0  0
    7.2920    0.7727   -0.0336 H   0  0  0  0  0  0  0  0  0  0  0  0
    6.8875   -0.1128   -2.9116 H   0  0  0  0  0  0  0  0  0  0  0  0
    6.7395    1.4737   -2.1737 H   0  0  0  0  0  0  0  0  0  0  0  0
   -1.6905   -0.3424   -1.2721 H   0  0  0  0  0  0  0  0  0  0  0  0
   -5.6345   -0.5357    1.1908 H   0  0  0  0  0  0  0  0  0  0  0  0
   -4.5378    0.2902    2.2844 H   0  0  0  0  0  0  0  0  0  0  0  0
   -6.6274    1.4482    0.8140 H   0  0  0  0  0  0  0  0  0  0  0  0
   -5.5061    2.3101    1.8837 H   0  0  0  0  0  0  0  0  0  0  0  0
   -5.0442    2.1693    0.1598 H   0  0  0  0  0  0  0  0  0  0  0  0
   -5.0653    0.6824   -1.2361 H   0  0  0  0  0  0  0  0  0  0  0  0
   -3.5099    0.1076   -1.8183 H   0  0  0  0  0  0  0  0  0  0  0  0
   -5.9522   -1.3117   -0.6876 H   0  0  0  0  0  0  0  0  0  0  0  0
   -5.1136   -1.6669   -2.2244 H   0  0  0  0  0  0  0  0  0  0  0  0
   -4.4016   -2.2160   -0.6419 H   0  0  0  0  0  0  0  0  0  0  0  0
   -2.7310    0.5229    2.7410 H   0  0  0  0  0  0  0  0  0  0  0  0
   -0.3301    0.4785    3.3290 H   0  0  0  0  0  0  0  0  0  0  0  0
    1.9703    0.2119    2.7322 H   0  0  0  0  0  0  0  0  0  0  0  0
  1  2  1  0
  2  3  1  0
  3  4  1  0
  4  5  2  0
  4  6  1  0
  6  7  2  0
  7  8  1  0
  8  9  1  0
  9 10  2  0
 10 11  1  0
 11 12  1  0
 12 13  1  0
 13 14  1  0
 12 15  1  0
 15 16  1  0
 11 17  2  0
 17 18  1  0
 18 19  2  0
 19 20  1  0
 20 21  2  0
 21 22  1  0
 22 23  3  0
 21  7  1  0
 19  9  1  0
  1 24  1  0
  1 25  1  0
  1 26  1  0
  2 27  1  0
  2 28  1  0
 10 29  1  0
 13 30  1  0
 13 31  1  0
 14 32  1  0
 14 33  1  0
 14 34  1  0
 15 35  1  0
 15 36  1  0
 16 37  1  0
 16 38  1  0
 16 39  1  0
 17 40  1  0
 18 41  1  0
 20 42  1  0
M  END
