
     RDKit          3D

 68 72  0  0  0  0  0  0  0  0999 V2000
    1.8933   -0.3024   -3.3464 N   0  0  0  0  0  0  0  0  0  0  0  0
    1.5977   -0.3251   -2.4422 C   0  0  0  0  0  0  0  0  0  0  0  0
    1.1155   -0.3744   -0.8802 C   0  0  0  0  0  0  0  0  0  0  0  0
   -0.1927   -0.4604   -0.8872 N   0  0  0  0  0  0  0  0  0  0  0  0
   -0.8401    0.0837    0.2588 C   0  0  0  0  0  0  0  0  0  0  0  0
   -2.2636    0.0273    0.2059 N   0  0  0  0  0  0  0  0  0  0  0  0
   -2.9698   -0.6560    1.2365 C   0  0  0  0  0  0  0  0  0  0  0  0
   -4.3679   -0.3622    1.4933 C   0  0  0  0  0  0  0  0  0  0  0  0
   -4.9138    0.8217    1.7797 C   0  0  0  0  0  0  0  0  0  0  0  0
   -6.2745    0.9282    2.0745 C   0  0  0  0  0  0  0  0  0  0  0  0
   -7.0495   -0.1929    2.0805 C   0  0  0  0  0  0  0  0  0  0  0  0
   -6.5237   -1.4280    1.8195 C   0  0  0  0  0  0  0  0  0  0  0  0
   -5.2022   -1.4968    1.5343 C   0  0  0  0  0  0  0  0  0  0  0  0
   -4.5050   -3.1161    1.3380 Cl  0  0  0  0  0  0  0  0  0  0  0  0
   -2.8085    0.4281   -1.0905 C   0  0  0  0  0  0  0  0  0  0  0  0
   -4.2743    0.1895   -1.2705 C   0  0  0  0  0  0  0  0  0  0  0  0
   -5.1986    1.0925   -1.0929 C   0  0  0  0  0  0  0  0  0  0  0  0
   -6.5559    0.7925   -1.2798 C   0  0  0  0  0  0  0  0  0  0  0  0
   -6.8745   -0.4621   -1.6496 C   0  0  0  0  0  0  0  0  0  0  0  0
   -5.9209   -1.4096   -1.8572 C   0  0  0  0  0  0  0  0  0  0  0  0
   -4.5839   -1.1076   -1.6732 C   0  0  0  0  0  0  0  0  0  0  0  0
   -3.3837   -2.3455   -1.9157 Cl  0  0  0  0  0  0  0  0  0  0  0  0
   -0.0728    0.5969    1.2204 C   0  0  0  0  0  0  0  0  0  0  0  0
   -0.7358    1.4787    2.1923 C   0  0  0  0  0  0  0  0  0  0  0  0
   -1.2879    2.1790    2.9810 N   0  0  0  0  0  0  0  0  0  0  0  0
    1.3031    0.6506    1.1736 N   0  0  0  0  0  0  0  0  0  0  0  0
    1.8981    0.1256    0.0480 C   0  0  0  0  0  0  0  0  0  0  0  0
    3.2691    0.3195   -0.2755 N   0  0  0  0  0  0  0  0  0  0  0  0
    4.1245   -0.7459   -0.6782 C   0  0  0  0  0  0  0  0  0  0  0  0
    4.1793   -2.0144   -0.0331 C   0  0  0  0  0  0  0  0  0  0  0  0
    4.2158   -2.2325    1.2960 C   0  0  0  0  0  0  0  0  0  0  0  0
    4.4849   -3.5132    1.7992 C   0  0  0  0  0  0  0  0  0  0  0  0
    4.7051   -4.5448    0.9134 C   0  0  0  0  0  0  0  0  0  0  0  0
    4.6541   -4.3226   -0.4363 C   0  0  0  0  0  0  0  0  0  0  0  0
    4.4125   -3.0952   -0.9415 C   0  0  0  0  0  0  0  0  0  0  0  0
    4.3065   -2.7427   -2.6802 Cl  0  0  0  0  0  0  0  0  0  0  0  0
    3.6264    1.6146   -0.6937 C   0  0  0  0  0  0  0  0  0  0  0  0
    4.8691    2.2374   -0.3101 C   0  0  0  0  0  0  0  0  0  0  0  0
    5.1861    2.6079    0.9699 C   0  0  0  0  0  0  0  0  0  0  0  0
    6.1516    3.6131    1.2028 C   0  0  0  0  0  0  0  0  0  0  0  0
    6.7786    4.2237    0.1568 C   0  0  0  0  0  0  0  0  0  0  0  0
    6.5006    3.8445   -1.1389 C   0  0  0  0  0  0  0  0  0  0  0  0
    5.5733    2.8902   -1.3502 C   0  0  0  0  0  0  0  0  0  0  0  0
    5.2082    2.2496   -2.9626 Cl  0  0  0  0  0  0  0  0  0  0  0  0
   -2.6327   -1.7028    1.3034 H   0  0  0  0  0  0  0  0  0  0  0  0
   -2.4551   -0.2348    2.2406 H   0  0  0  0  0  0  0  0  0  0  0  0
   -4.3519    1.7296    1.7793 H   0  0  0  0  0  0  0  0  0  0  0  0
   -6.7340    1.8705    2.3811 H   0  0  0  0  0  0  0  0  0  0  0  0
   -8.1368   -0.1599    2.2346 H   0  0  0  0  0  0  0  0  0  0  0  0
   -7.1336   -2.3395    1.8142 H   0  0  0  0  0  0  0  0  0  0  0  0
   -2.6637    1.5799   -1.0514 H   0  0  0  0  0  0  0  0  0  0  0  0
   -2.2402    0.0994   -1.9302 H   0  0  0  0  0  0  0  0  0  0  0  0
   -4.9566    2.1168   -0.8416 H   0  0  0  0  0  0  0  0  0  0  0  0
   -7.3285    1.5360   -1.1122 H   0  0  0  0  0  0  0  0  0  0  0  0
   -7.9229   -0.7040   -1.7717 H   0  0  0  0  0  0  0  0  0  0  0  0
   -6.2585   -2.3905   -2.1541 H   0  0  0  0  0  0  0  0  0  0  0  0
    4.4340   -0.6686   -1.7383 H   0  0  0  0  0  0  0  0  0  0  0  0
    5.1928   -0.2610   -0.2166 H   0  0  0  0  0  0  0  0  0  0  0  0
    4.0502   -1.4131    1.9862 H   0  0  0  0  0  0  0  0  0  0  0  0
    4.5573   -3.6720    2.8387 H   0  0  0  0  0  0  0  0  0  0  0  0
    4.9802   -5.5435    1.2424 H   0  0  0  0  0  0  0  0  0  0  0  0
    4.7353   -5.1619   -1.1333 H   0  0  0  0  0  0  0  0  0  0  0  0
    3.2619    1.8221   -1.7062 H   0  0  0  0  0  0  0  0  0  0  0  0
    2.7858    2.2855   -0.0875 H   0  0  0  0  0  0  0  0  0  0  0  0
    4.6762    2.1292    1.7901 H   0  0  0  0  0  0  0  0  0  0  0  0
    6.3455    3.9545    2.1992 H   0  0  0  0  0  0  0  0  0  0  0  0
    7.4968    5.0564    0.2979 H   0  0  0  0  0  0  0  0  0  0  0  0
    7.0445    4.3269   -1.9508 H   0  0  0  0  0  0  0  0  0  0  0  0
  1  2  3  0
  2  3  1  0
  3  4  2  0
  4  5  1  0
  5  6  1  0
  6  7  1  0
  7  8  1  0
  8  9  2  0
  9 10  1  0
 10 11  2  0
 11 12  1  0
 12 13  2  0
 13 14  1  0
  6 15  1  0
 15 16  1  0
 16 17  2  0
 17 18  1  0
 18 19  2  0
 19 20  1  0
 20 21  2  0
 21 22  1  0
  5 23  2  0
 23 24  1  0
 24 25  3  0
 23 26  1  0
 26 27  2  0
 27 28  1  0
 28 29  1  0
 29 30  1  0
 30 31  2  0
 31 32  1  0
 32 33  2  0
 33 34  1  0
 34 35  2  0
 35 36  1  0
 28 37  1  0
 37 38  1  0
 38 39  2  0
 39 40  1  0
 40 41  2  0
 41 42  1  0
 42 43  2  0
 43 44  1  0
 27  3  1  0
 35 30  1  0
 43 38  1  0
 13  8  1  0
 21 16  1  0
  7 45  1  0
  7 46  1  0
  9 47  1  0
 10 48  1  0
 11 49  1  0
 12 50  1  0
 15 51  1  0
 15 52  1  0
 17 53  1  0
 18 54  1  0
 19 55  1  0
 20 56  1  0
 29 57  1  0
 29 58  1  0
 31 59  1  0
 32 60  1  0
 33 61  1  0
 34 62  1  0
 37 63  1  0
 37 64  1  0
 39 65  1  0
 40 66  1  0
 41 67  1  0
 42 68  1  0
M  END
