
     RDKit          3D

 36 38  0  0  0  0  0  0  0  0999 V2000
    5.3628   -1.9733    0.0053 C   0  0  0  0  0  0  0  0  0  0  0  0
    4.9684   -0.5356   -0.1250 C   0  0  0  0  0  0  0  0  0  0  0  0
    3.5434   -0.4841   -0.0915 O   0  0  0  0  0  0  0  0  0  0  0  0
    2.8613    0.7140   -0.1906 C   0  0  0  0  0  0  0  0  0  0  0  0
    3.5370    1.7613   -0.3117 O   0  0  0  0  0  0  0  0  0  0  0  0
    1.3913    0.7869   -0.1580 C   0  0  0  0  0  0  0  0  0  0  0  0
    0.5995    1.8978   -0.2457 C   0  0  0  0  0  0  0  0  0  0  0  0
   -0.7506    1.4911   -0.1709 C   0  0  0  0  0  0  0  0  0  0  0  0
   -1.8309    2.4627   -0.3390 C   0  0  0  0  0  0  0  0  0  0  0  0
   -2.5729    2.3966   -1.3494 O   0  0  0  0  0  0  0  0  0  0  0  0
   -2.0932    3.4726    0.5646 O   0  0  0  0  0  0  0  0  0  0  0  0
   -3.1203    4.4201    0.4337 C   0  0  0  0  0  0  0  0  0  0  0  0
   -0.7241    0.1464   -0.0365 C   0  0  0  0  0  0  0  0  0  0  0  0
   -1.7358   -0.7664    0.0898 C   0  0  0  0  0  0  0  0  0  0  0  0
   -3.0382   -0.4039    0.1215 C   0  0  0  0  0  0  0  0  0  0  0  0
   -4.0034   -1.4001    0.2746 C   0  0  0  0  0  0  0  0  0  0  0  0
   -3.6275   -2.7214    0.3916 C   0  0  0  0  0  0  0  0  0  0  0  0
   -2.3179   -3.0991    0.3631 C   0  0  0  0  0  0  0  0  0  0  0  0
   -1.3619   -2.1178    0.2117 C   0  0  0  0  0  0  0  0  0  0  0  0
   -0.0412   -2.5149    0.2095 C   0  0  0  0  0  0  0  0  0  0  0  0
    0.8861   -1.5518    0.0858 N   0  0  0  0  0  0  0  0  0  0  0  0
    0.5640   -0.2680   -0.0321 N   0  0  0  0  0  0  0  0  0  0  0  0
    4.4930   -2.6686   -0.0626 H   0  0  0  0  0  0  0  0  0  0  0  0
    5.9022   -2.1863    0.9573 H   0  0  0  0  0  0  0  0  0  0  0  0
    6.1088   -2.1797   -0.8116 H   0  0  0  0  0  0  0  0  0  0  0  0
    5.2945   -0.0618   -1.0599 H   0  0  0  0  0  0  0  0  0  0  0  0
    5.4059    0.0040    0.7558 H   0  0  0  0  0  0  0  0  0  0  0  0
    0.9566    2.9278   -0.3553 H   0  0  0  0  0  0  0  0  0  0  0  0
   -3.0837    5.0508    1.3695 H   0  0  0  0  0  0  0  0  0  0  0  0
   -4.1176    3.9952    0.3033 H   0  0  0  0  0  0  0  0  0  0  0  0
   -2.9427    5.1383   -0.3992 H   0  0  0  0  0  0  0  0  0  0  0  0
   -3.3702    0.5960    0.0665 H   0  0  0  0  0  0  0  0  0  0  0  0
   -5.0436   -1.1673    0.3045 H   0  0  0  0  0  0  0  0  0  0  0  0
   -4.3698   -3.4972    0.5098 H   0  0  0  0  0  0  0  0  0  0  0  0
   -2.0125   -4.1336    0.4548 H   0  0  0  0  0  0  0  0  0  0  0  0
    0.2829   -3.5308    0.2993 H   0  0  0  0  0  0  0  0  0  0  0  0
  1  2  1  0
  2  3  1  0
  3  4  1  0
  4  5  2  0
  4  6  1  0
  6  7  2  0
  7  8  1  0
  8  9  1  0
  9 10  2  0
  9 11  1  0
 11 12  1  0
  8 13  2  0
 13 14  1  0
 14 15  2  0
 15 16  1  0
 16 17  2  0
 17 18  1  0
 18 19  2  0
 19 20  1  0
 20 21  2  0
 21 22  1  0
 22  6  1  0
 22 13  1  0
 19 14  1  0
  1 23  1  0
  1 24  1  0
  1 25  1  0
  2 26  1  0
  2 27  1  0
  7 28  1  0
 12 29  1  0
 12 30  1  0
 12 31  1  0
 15 32  1  0
 16 33  1  0
 17 34  1  0
 18 35  1  0
 20 36  1  0
M  END
