
     RDKit          3D

 36 39  0  0  0  0  0  0  0  0999 V2000
   -7.1640   -1.3392   -0.6882 O   0  0  0  0  0  0  0  0  0  0  0  0
   -6.6247   -0.2287   -0.6588 N   0  0  0  0  0  4  0  0  0  0  0  0
   -7.4074    0.8902   -0.7644 O   0  0  0  0  0  1  0  0  0  0  0  0
   -5.1996   -0.1729   -0.5149 C   0  0  0  0  0  0  0  0  0  0  0  0
   -4.4543   -1.3245   -0.4123 C   0  0  0  0  0  0  0  0  0  0  0  0
   -3.0669   -1.2570   -0.2725 C   0  0  0  0  0  0  0  0  0  0  0  0
   -2.3733   -0.0751   -0.2292 C   0  0  0  0  0  0  0  0  0  0  0  0
   -0.9597   -0.0036   -0.0902 N   0  0  0  0  0  4  0  0  0  0  0  0
   -0.1728   -1.0039   -0.0699 C   0  0  0  0  0  0  0  0  0  0  0  0
    1.2808   -0.9846    0.0711 C   0  0  0  0  0  0  0  0  0  0  0  0
    1.8555    0.1621    0.1909 C   0  0  0  0  0  0  0  0  0  0  0  0
    1.1108    1.3292    0.1851 O   0  0  0  0  0  0  0  0  0  0  0  0
   -0.3396    1.3908    0.0330 B   0  0  0  0  0  4  0  0  0  0  0  0
   -0.9721    2.0227    1.2053 F   0  0  0  0  0  0  0  0  0  0  0  0
   -0.5872    2.1996   -1.1773 F   0  0  0  0  0  0  0  0  0  0  0  0
    3.3088    0.3938    0.3433 C   0  0  0  0  0  0  0  0  0  0  0  0
    3.8205    1.6890    0.4657 C   0  0  0  0  0  0  0  0  0  0  0  0
    5.1566    1.9611    0.6095 C   0  0  0  0  0  0  0  0  0  0  0  0
    6.0273    0.8932    0.6328 C   0  0  0  0  0  0  0  0  0  0  0  0
    5.5349   -0.3949    0.5127 C   0  0  0  0  0  0  0  0  0  0  0  0
    4.1749   -0.6338    0.3685 C   0  0  0  0  0  0  0  0  0  0  0  0
    3.6679   -2.3074    0.2250 S   0  0  0  0  0  0  0  0  0  0  0  0
    1.8974   -2.3399    0.0546 C   0  0  0  0  0  0  0  0  0  0  0  0
   -3.1534    1.0696   -0.3350 C   0  0  0  0  0  0  0  0  0  0  0  0
   -4.5292    1.0305   -0.4743 C   0  0  0  0  0  0  0  0  0  0  0  0
   -4.9709   -2.2944   -0.4426 H   0  0  0  0  0  0  0  0  0  0  0  0
   -2.5479   -2.1908   -0.1957 H   0  0  0  0  0  0  0  0  0  0  0  0
   -0.6464   -1.9758   -0.1720 H   0  0  0  0  0  0  0  0  0  0  0  0
    3.1134    2.5234    0.4449 H   0  0  0  0  0  0  0  0  0  0  0  0
    5.5556    2.9549    0.7040 H   0  0  0  0  0  0  0  0  0  0  0  0
    7.1085    1.0155    0.7437 H   0  0  0  0  0  0  0  0  0  0  0  0
    6.2391   -1.2125    0.5342 H   0  0  0  0  0  0  0  0  0  0  0  0
    1.4876   -2.8988    0.9315 H   0  0  0  0  0  0  0  0  0  0  0  0
    1.5776   -2.8363   -0.8997 H   0  0  0  0  0  0  0  0  0  0  0  0
   -2.6392    2.0230   -0.3045 H   0  0  0  0  0  0  0  0  0  0  0  0
   -5.1089    1.9254   -0.5540 H   0  0  0  0  0  0  0  0  0  0  0  0
  1  2  2  0
  2  3  1  0
  2  4  1  0
  4  5  2  0
  5  6  1  0
  6  7  2  0
  7  8  1  0
  8  9  2  0
  9 10  1  0
 10 11  2  0
 11 12  1  0
 12 13  1  0
 13 14  1  0
 13 15  1  0
 11 16  1  0
 16 17  2  0
 17 18  1  0
 18 19  2  0
 19 20  1  0
 20 21  2  0
 21 22  1  0
 22 23  1  0
  7 24  1  0
 24 25  2  0
 25  4  1  0
 13  8  1  0
 21 16  1  0
 23 10  1  0
  5 26  1  0
  6 27  1  0
  9 28  1  0
 17 29  1  0
 18 30  1  0
 19 31  1  0
 20 32  1  0
 23 33  1  0
 23 34  1  0
 24 35  1  0
 25 36  1  0
M  CHG  4   2   1   3  -1   8   1  13  -1
M  END
