
     RDKit          3D

 30 32  0  0  0  0  0  0  0  0999 V2000
   -2.7563   -2.6520   -0.9694 O   0  0  0  0  0  0  0  0  0  0  0  0
   -2.0916   -1.7402   -0.3997 C   0  0  0  0  0  0  0  0  0  0  0  0
   -0.7055   -1.9904   -0.0223 C   0  0  0  0  0  0  0  0  0  0  0  0
   -0.0155   -1.0192    0.5784 C   0  0  0  0  0  0  0  0  0  0  0  0
    1.3251   -1.2328    0.9542 N   0  0  0  0  0  0  0  0  0  0  0  0
    2.4304   -0.5671    0.3687 C   0  0  0  0  0  0  0  0  0  0  0  0
    2.2415    0.3572   -0.6354 C   0  0  0  0  0  0  0  0  0  0  0  0
    3.3047    1.0297   -1.2327 C   0  0  0  0  0  0  0  0  0  0  0  0
    4.5829    0.7602   -0.8043 C   0  0  0  0  0  0  0  0  0  0  0  0
    4.7866   -0.1649    0.2024 C   0  0  0  0  0  0  0  0  0  0  0  0
    6.0482   -0.4415    0.6365 F   0  0  0  0  0  0  0  0  0  0  0  0
    3.7122   -0.8361    0.7971 C   0  0  0  0  0  0  0  0  0  0  0  0
    3.9278   -1.7469    1.7898 F   0  0  0  0  0  0  0  0  0  0  0  0
   -0.6664    0.2768    0.8452 C   0  0  0  0  0  0  0  0  0  0  0  0
   -0.0394    1.2197    1.4138 O   0  0  0  0  0  0  0  0  0  0  0  0
   -2.0543    0.5186    0.4640 C   0  0  0  0  0  0  0  0  0  0  0  0
   -2.6543    1.7509    0.7241 C   0  0  0  0  0  0  0  0  0  0  0  0
   -3.9858    1.9640    0.3512 C   0  0  0  0  0  0  0  0  0  0  0  0
   -4.7076    0.9655   -0.2706 C   0  0  0  0  0  0  0  0  0  0  0  0
   -4.0786   -0.2384   -0.5101 C   0  0  0  0  0  0  0  0  0  0  0  0
   -2.7723   -0.4800   -0.1566 C   0  0  0  0  0  0  0  0  0  0  0  0
   -0.1995   -2.9360   -0.2064 H   0  0  0  0  0  0  0  0  0  0  0  0
    1.4905   -1.9360    1.7204 H   0  0  0  0  0  0  0  0  0  0  0  0
    1.2093    0.5384   -0.9426 H   0  0  0  0  0  0  0  0  0  0  0  0
    3.1175    1.7555   -2.0255 H   0  0  0  0  0  0  0  0  0  0  0  0
    5.4188    1.2708   -1.2547 H   0  0  0  0  0  0  0  0  0  0  0  0
   -2.0590    2.4977    1.2080 H   0  0  0  0  0  0  0  0  0  0  0  0
   -4.4442    2.9285    0.5586 H   0  0  0  0  0  0  0  0  0  0  0  0
   -5.7352    1.1614   -0.5465 H   0  0  0  0  0  0  0  0  0  0  0  0
   -4.6300   -1.0133   -0.9897 H   0  0  0  0  0  0  0  0  0  0  0  0
  1  2  2  0
  2  3  1  0
  3  4  2  0
  4  5  1  0
  5  6  1  0
  6  7  2  0
  7  8  1  0
  8  9  2  0
  9 10  1  0
 10 11  1  0
 10 12  2  0
 12 13  1  0
  4 14  1  0
 14 15  2  0
 14 16  1  0
 16 17  2  0
 17 18  1  0
 18 19  2  0
 19 20  1  0
 20 21  2  0
 21  2  1  0
 12  6  1  0
 21 16  1  0
  3 22  1  0
  5 23  1  0
  7 24  1  0
  8 25  1  0
  9 26  1  0
 17 27  1  0
 18 28  1  0
 19 29  1  0
 20 30  1  0
M  END
