
     RDKit          3D

 57 60  0  0  0  0  0  0  0  0999 V2000
   -7.5815   -0.6919    0.8483 C   0  0  0  0  0  0  0  0  0  0  0  0
   -6.9679    0.1266   -0.2794 C   0  0  0  0  0  0  0  0  0  0  0  0
   -7.7385    1.3905   -0.4746 C   0  0  0  0  0  0  0  0  0  0  0  0
   -7.0887   -0.7780   -1.5220 C   0  0  0  0  0  0  0  0  0  0  0  0
   -5.5273    0.3019   -0.0257 C   0  0  0  0  0  0  0  0  0  0  0  0
   -4.9330   -0.0754    1.1527 C   0  0  0  0  0  0  0  0  0  0  0  0
   -3.5510    0.0492    1.3532 C   0  0  0  0  0  0  0  0  0  0  0  0
   -2.7862    0.5571    0.3490 C   0  0  0  0  0  0  0  0  0  0  0  0
   -1.3410    0.5852    0.4797 C   0  0  0  0  0  0  0  0  0  0  0  0
   -0.7873   -0.5928    0.9749 C   0  0  0  0  0  0  0  0  0  0  0  0
    0.5750   -0.7260    1.0348 C   0  0  0  0  0  0  0  0  0  0  0  0
    1.3491    0.3307    0.5959 C   0  0  0  0  0  0  0  0  0  0  0  0
    2.7841    0.1076    0.5196 C   0  0  0  0  0  0  0  0  0  0  0  0
    3.2140   -0.4133   -0.6979 C   0  0  0  0  0  0  0  0  0  0  0  0
    4.5332   -0.6885   -0.9610 C   0  0  0  0  0  0  0  0  0  0  0  0
    5.4501   -0.4218    0.0523 C   0  0  0  0  0  0  0  0  0  0  0  0
    6.8611   -0.6993   -0.2002 C   0  0  0  0  0  0  0  0  0  0  0  0
    7.2808   -0.7238   -1.6455 C   0  0  0  0  0  0  0  0  0  0  0  0
    7.8031    0.2861    0.4718 C   0  0  0  0  0  0  0  0  0  0  0  0
    7.1776   -2.0632    0.4302 C   0  0  0  0  0  0  0  0  0  0  0  0
    5.0585    0.0978    1.2806 C   0  0  0  0  0  0  0  0  0  0  0  0
    3.7051    0.3535    1.4823 C   0  0  0  0  0  0  0  0  0  0  0  0
    0.7900    1.5285    0.1006 C   0  0  0  0  0  0  0  0  0  0  0  0
    1.5086    2.5803   -0.3239 N   0  0  0  0  0  0  0  0  0  0  0  0
    0.3496    3.6986   -0.7810 S   0  0  0  0  0  0  0  0  0  0  0  0
   -1.0255    2.8058   -0.4234 N   0  0  0  0  0  0  0  0  0  0  0  0
   -0.5490    1.6529    0.0444 C   0  0  0  0  0  0  0  0  0  0  0  0
   -3.3675    0.9559   -0.8624 C   0  0  0  0  0  0  0  0  0  0  0  0
   -4.7122    0.8214   -1.0212 C   0  0  0  0  0  0  0  0  0  0  0  0
   -7.5642   -0.1619    1.8081 H   0  0  0  0  0  0  0  0  0  0  0  0
   -6.9624   -1.6090    0.9560 H   0  0  0  0  0  0  0  0  0  0  0  0
   -8.5991   -1.0211    0.5726 H   0  0  0  0  0  0  0  0  0  0  0  0
   -8.2107    1.3531   -1.5043 H   0  0  0  0  0  0  0  0  0  0  0  0
   -7.1375    2.2987   -0.4421 H   0  0  0  0  0  0  0  0  0  0  0  0
   -8.6172    1.4263    0.2083 H   0  0  0  0  0  0  0  0  0  0  0  0
   -6.3006   -1.5745   -1.3700 H   0  0  0  0  0  0  0  0  0  0  0  0
   -6.8461   -0.1622   -2.4186 H   0  0  0  0  0  0  0  0  0  0  0  0
   -8.0933   -1.1826   -1.5935 H   0  0  0  0  0  0  0  0  0  0  0  0
   -5.5415   -0.4764    1.9331 H   0  0  0  0  0  0  0  0  0  0  0  0
   -3.0911   -0.2552    2.2885 H   0  0  0  0  0  0  0  0  0  0  0  0
   -1.4341   -1.4198    1.3174 H   0  0  0  0  0  0  0  0  0  0  0  0
    0.9988   -1.6478    1.4206 H   0  0  0  0  0  0  0  0  0  0  0  0
    2.4987   -0.6323   -1.5050 H   0  0  0  0  0  0  0  0  0  0  0  0
    4.8106   -1.1016   -1.9218 H   0  0  0  0  0  0  0  0  0  0  0  0
    7.5182    0.3281   -1.9557 H   0  0  0  0  0  0  0  0  0  0  0  0
    8.2392   -1.3366   -1.6614 H   0  0  0  0  0  0  0  0  0  0  0  0
    6.6070   -1.1247   -2.3706 H   0  0  0  0  0  0  0  0  0  0  0  0
    8.0759    1.0681   -0.2835 H   0  0  0  0  0  0  0  0  0  0  0  0
    8.7707   -0.2424    0.7033 H   0  0  0  0  0  0  0  0  0  0  0  0
    7.4174    0.7903    1.3326 H   0  0  0  0  0  0  0  0  0  0  0  0
    6.4959   -2.2505    1.2636 H   0  0  0  0  0  0  0  0  0  0  0  0
    7.0143   -2.8768   -0.3286 H   0  0  0  0  0  0  0  0  0  0  0  0
    8.2034   -2.0911    0.8274 H   0  0  0  0  0  0  0  0  0  0  0  0
    5.7296    0.3100    2.1038 H   0  0  0  0  0  0  0  0  0  0  0  0
    3.4247    0.7592    2.4613 H   0  0  0  0  0  0  0  0  0  0  0  0
   -2.6969    1.3545   -1.6027 H   0  0  0  0  0  0  0  0  0  0  0  0
   -5.1932    1.1228   -1.9495 H   0  0  0  0  0  0  0  0  0  0  0  0
  1  2  1  0
  2  3  1  0
  2  4  1  0
  2  5  1  0
  5  6  2  0
  6  7  1  0
  7  8  2  0
  8  9  1  0
  9 10  2  0
 10 11  1  0
 11 12  2  0
 12 13  1  0
 13 14  2  0
 14 15  1  0
 15 16  2  0
 16 17  1  0
 17 18  1  0
 17 19  1  0
 17 20  1  0
 16 21  1  0
 21 22  2  0
 12 23  1  0
 23 24  2  0
 24 25  1  0
 25 26  1  0
 26 27  2  0
  8 28  1  0
 28 29  2  0
 29  5  1  0
 27  9  1  0
 22 13  1  0
 27 23  1  0
  1 30  1  0
  1 31  1  0
  1 32  1  0
  3 33  1  0
  3 34  1  0
  3 35  1  0
  4 36  1  0
  4 37  1  0
  4 38  1  0
  6 39  1  0
  7 40  1  0
 10 41  1  0
 11 42  1  0
 14 43  1  0
 15 44  1  0
 18 45  1  0
 18 46  1  0
 18 47  1  0
 19 48  1  0
 19 49  1  0
 19 50  1  0
 20 51  1  0
 20 52  1  0
 20 53  1  0
 21 54  1  0
 22 55  1  0
 28 56  1  0
 29 57  1  0
M  END
