
     RDKit          3D

 63 70  0  0  0  0  0  0  0  0999 V2000
   -5.9733    0.4350    1.1439 C   0  0  0  0  0  0  0  0  0  0  0  0
   -4.9718   -0.1533    0.1720 C   0  0  0  0  0  0  0  0  0  0  0  0
   -5.7618   -1.0362   -0.7937 C   0  0  0  0  0  0  0  0  0  0  0  0
   -4.2983    0.8624   -0.6293 C   0  0  0  0  0  0  0  0  0  0  0  0
   -5.0568    1.7714   -1.3955 C   0  0  0  0  0  0  0  0  0  0  0  0
   -4.4490    2.7356   -2.1632 C   0  0  0  0  0  0  0  0  0  0  0  0
   -3.0749    2.8423   -2.2068 C   0  0  0  0  0  0  0  0  0  0  0  0
   -2.3183    1.9727   -1.4730 C   0  0  0  0  0  0  0  0  0  0  0  0
   -2.9297    1.0026   -0.7001 C   0  0  0  0  0  0  0  0  0  0  0  0
   -2.0983    0.1337    0.0314 N   0  0  0  0  0  0  0  0  0  0  0  0
   -0.6536    0.2509    0.0092 C   0  0  0  0  0  0  0  0  0  0  0  0
   -0.0767    1.3814    0.5424 C   0  0  0  0  0  0  0  0  0  0  0  0
    1.2847    1.5162    0.5137 C   0  0  0  0  0  0  0  0  0  0  0  0
    2.0789    0.5402   -0.0388 C   0  0  0  0  0  0  0  0  0  0  0  0
    1.4864   -0.5897   -0.5707 C   0  0  0  0  0  0  0  0  0  0  0  0
    0.1163   -0.7509   -0.5548 C   0  0  0  0  0  0  0  0  0  0  0  0
    2.2846   -1.5768   -1.1291 C   0  0  0  0  0  0  0  0  0  0  0  0
    1.7221   -2.6987   -1.6590 C   0  0  0  0  0  0  0  0  0  0  0  0
    2.5799   -3.6625   -2.2099 C   0  0  0  0  0  0  0  0  0  0  0  0
    3.9410   -3.4685   -2.2085 C   0  0  0  0  0  0  0  0  0  0  0  0
    4.4879   -2.3319   -1.6700 C   0  0  0  0  0  0  0  0  0  0  0  0
    3.6697   -1.3708   -1.1233 C   0  0  0  0  0  0  0  0  0  0  0  0
    4.2546   -0.2377   -0.5893 C   0  0  0  0  0  0  0  0  0  0  0  0
    5.5757   -0.0544   -0.5904 N   0  0  0  0  0  0  0  0  0  0  0  0
    6.1486    1.0671   -0.0615 C   0  0  0  0  0  0  0  0  0  0  0  0
    7.5175    1.2396   -0.0715 C   0  0  0  0  0  0  0  0  0  0  0  0
    8.1255    2.3623    0.4555 C   0  0  0  0  0  0  0  0  0  0  0  0
    7.3157    3.3351    1.0076 C   0  0  0  0  0  0  0  0  0  0  0  0
    5.9407    3.1603    1.0169 C   0  0  0  0  0  0  0  0  0  0  0  0
    5.3349    2.0362    0.4889 C   0  0  0  0  0  0  0  0  0  0  0  0
    3.9850    1.8695    0.5006 N   0  0  0  0  0  0  0  0  0  0  0  0
    3.4658    0.7345   -0.0391 C   0  0  0  0  0  0  0  0  0  0  0  0
   -2.6845   -0.8792    0.8340 C   0  0  0  0  0  0  0  0  0  0  0  0
   -1.8916   -1.7445    1.5671 C   0  0  0  0  0  0  0  0  0  0  0  0
   -2.4476   -2.7291    2.3519 C   0  0  0  0  0  0  0  0  0  0  0  0
   -3.8115   -2.8998    2.4452 C   0  0  0  0  0  0  0  0  0  0  0  0
   -4.5995   -2.0429    1.7195 C   0  0  0  0  0  0  0  0  0  0  0  0
   -4.0504   -1.0266    0.9086 C   0  0  0  0  0  0  0  0  0  0  0  0
   -6.4562    1.3345    0.7415 H   0  0  0  0  0  0  0  0  0  0  0  0
   -5.4688    0.5933    2.1213 H   0  0  0  0  0  0  0  0  0  0  0  0
   -6.7649   -0.3287    1.2952 H   0  0  0  0  0  0  0  0  0  0  0  0
   -5.9318   -2.0298   -0.3258 H   0  0  0  0  0  0  0  0  0  0  0  0
   -5.1793   -1.1834   -1.7231 H   0  0  0  0  0  0  0  0  0  0  0  0
   -6.7476   -0.5856   -1.0327 H   0  0  0  0  0  0  0  0  0  0  0  0
   -6.1484    1.6617   -1.3406 H   0  0  0  0  0  0  0  0  0  0  0  0
   -5.0920    3.4143   -2.7374 H   0  0  0  0  0  0  0  0  0  0  0  0
   -2.5908    3.5943   -2.8054 H   0  0  0  0  0  0  0  0  0  0  0  0
   -1.2287    2.0023   -1.4707 H   0  0  0  0  0  0  0  0  0  0  0  0
   -0.7013    2.1778    0.9916 H   0  0  0  0  0  0  0  0  0  0  0  0
    1.7834    2.3934    0.9239 H   0  0  0  0  0  0  0  0  0  0  0  0
   -0.4231   -1.5751   -0.9351 H   0  0  0  0  0  0  0  0  0  0  0  0
    0.6621   -2.8606   -1.6657 H   0  0  0  0  0  0  0  0  0  0  0  0
    2.1091   -4.5305   -2.6174 H   0  0  0  0  0  0  0  0  0  0  0  0
    4.5944   -4.2061   -2.6298 H   0  0  0  0  0  0  0  0  0  0  0  0
    5.5573   -2.1463   -1.6520 H   0  0  0  0  0  0  0  0  0  0  0  0
    8.0938    0.4353   -0.5213 H   0  0  0  0  0  0  0  0  0  0  0  0
    9.2082    2.4819    0.4391 H   0  0  0  0  0  0  0  0  0  0  0  0
    7.7789    4.2279    1.4282 H   0  0  0  0  0  0  0  0  0  0  0  0
    5.3469    3.9472    1.4591 H   0  0  0  0  0  0  0  0  0  0  0  0
   -0.8206   -1.5948    1.4887 H   0  0  0  0  0  0  0  0  0  0  0  0
   -1.7935   -3.4050    2.9255 H   0  0  0  0  0  0  0  0  0  0  0  0
   -4.2717   -3.6660    3.0549 H   0  0  0  0  0  0  0  0  0  0  0  0
   -5.6832   -2.1476    1.7686 H   0  0  0  0  0  0  0  0  0  0  0  0
  1  2  1  0
  2  3  1  0
  2  4  1  0
  4  5  2  0
  5  6  1  0
  6  7  2  0
  7  8  1  0
  8  9  2  0
  9 10  1  0
 10 11  1  0
 11 12  2  0
 12 13  1  0
 13 14  2  0
 14 15  1  0
 15 16  2  0
 15 17  1  0
 17 18  2  0
 18 19  1  0
 19 20  2  0
 20 21  1  0
 21 22  2  0
 22 23  1  0
 23 24  2  0
 24 25  1  0
 25 26  2  0
 26 27  1  0
 27 28  2  0
 28 29  1  0
 29 30  2  0
 30 31  1  0
 31 32  2  0
 10 33  1  0
 33 34  2  0
 34 35  1  0
 35 36  2  0
 36 37  1  0
 37 38  2  0
 38  2  1  0
  9  4  1  0
 16 11  1  0
 22 17  1  0
 32 23  1  0
 38 33  1  0
 32 14  1  0
 30 25  1  0
  1 39  1  0
  1 40  1  0
  1 41  1  0
  3 42  1  0
  3 43  1  0
  3 44  1  0
  5 45  1  0
  6 46  1  0
  7 47  1  0
  8 48  1  0
 12 49  1  0
 13 50  1  0
 16 51  1  0
 18 52  1  0
 19 53  1  0
 20 54  1  0
 21 55  1  0
 26 56  1  0
 27 57  1  0
 28 58  1  0
 29 59  1  0
 34 60  1  0
 35 61  1  0
 36 62  1  0
 37 63  1  0
M  END
