
     RDKit          3D

 39 42  0  0  0  0  0  0  0  0999 V2000
   -1.5859    0.7756    1.2920 C   0  0  0  0  0  0  0  0  0  0  0  0
   -1.6143   -0.6460    1.2313 C   0  0  0  0  0  0  0  0  0  0  0  0
   -1.6099   -1.3768    0.0565 C   0  0  0  0  0  0  0  0  0  0  0  0
   -1.5972   -0.5674   -1.0649 C   0  0  0  0  0  0  0  0  0  0  0  0
   -1.5679    0.8548   -1.0247 C   0  0  0  0  0  0  0  0  0  0  0  0
   -1.5509    1.5797    0.1604 C   0  0  0  0  0  0  0  0  0  0  0  0
   -1.2933    3.0825    0.2079 C   0  0  0  0  0  0  0  0  0  0  0  0
    0.1153    3.4168    0.6392 C   0  0  0  0  0  0  0  0  0  0  0  0
    1.2701    2.8641   -0.1532 C   0  0  0  0  0  0  0  0  0  0  0  0
    1.5007    1.3805   -0.1341 C   0  0  0  0  0  0  0  0  0  0  0  0
    1.5023    0.6570    1.0262 C   0  0  0  0  0  0  0  0  0  0  0  0
    1.4817   -0.7497    1.1025 C   0  0  0  0  0  0  0  0  0  0  0  0
    1.4590   -1.5643    0.0083 C   0  0  0  0  0  0  0  0  0  0  0  0
    1.4821   -0.8358   -1.2682 C   0  0  0  0  0  0  0  0  0  0  0  0
    1.5195   -1.3675   -2.5266 N   0  0  0  0  0  0  0  0  0  0  0  0
    1.5767   -0.2413   -3.6609 S   0  0  0  0  0  0  0  0  0  0  0  0
    1.5574    0.9941   -2.6389 N   0  0  0  0  0  0  0  0  0  0  0  0
    1.5027    0.5228   -1.3249 C   0  0  0  0  0  0  0  0  0  0  0  0
    1.2096   -3.0465    0.1025 C   0  0  0  0  0  0  0  0  0  0  0  0
   -0.1533   -3.4169    0.6258 C   0  0  0  0  0  0  0  0  0  0  0  0
   -1.3895   -2.8779    0.0093 C   0  0  0  0  0  0  0  0  0  0  0  0
   -1.6110    0.9753    2.3836 H   0  0  0  0  0  0  0  0  0  0  0  0
   -1.6642   -0.9894    2.3132 H   0  0  0  0  0  0  0  0  0  0  0  0
   -1.6323   -0.8379   -2.1659 H   0  0  0  0  0  0  0  0  0  0  0  0
   -1.5640    1.1508   -2.0968 H   0  0  0  0  0  0  0  0  0  0  0  0
   -1.6095    3.6716   -0.6594 H   0  0  0  0  0  0  0  0  0  0  0  0
   -1.9697    3.6265    0.9505 H   0  0  0  0  0  0  0  0  0  0  0  0
    0.2312    3.1331    1.7039 H   0  0  0  0  0  0  0  0  0  0  0  0
    0.1893    4.5150    0.6140 H   0  0  0  0  0  0  0  0  0  0  0  0
    1.0964    3.3885   -1.0941 H   0  0  0  0  0  0  0  0  0  0  0  0
    2.2096    3.4165    0.2117 H   0  0  0  0  0  0  0  0  0  0  0  0
    1.5674    1.0073    2.1212 H   0  0  0  0  0  0  0  0  0  0  0  0
    1.5042   -0.9185    2.2192 H   0  0  0  0  0  0  0  0  0  0  0  0
    1.9382   -3.5538    0.8490 H   0  0  0  0  0  0  0  0  0  0  0  0
    1.5191   -3.7116   -0.7197 H   0  0  0  0  0  0  0  0  0  0  0  0
   -0.1780   -4.5045    0.6938 H   0  0  0  0  0  0  0  0  0  0  0  0
   -0.1560   -3.0553    1.6993 H   0  0  0  0  0  0  0  0  0  0  0  0
   -1.3902   -3.3747   -0.9666 H   0  0  0  0  0  0  0  0  0  0  0  0
   -2.2956   -3.3765    0.4768 H   0  0  0  0  0  0  0  0  0  0  0  0
  1  2  1  0
  2  3  2  0
  3  4  1  0
  4  5  2  0
  5  6  1  0
  6  7  1  0
  7  8  1  0
  8  9  1  0
  9 10  1  0
 10 11  2  0
 11 12  1  0
 12 13  2  0
 13 14  1  0
 14 15  2  0
 15 16  1  0
 16 17  1  0
 17 18  2  0
 13 19  1  0
 19 20  1  0
 20 21  1  0
  6  1  2  0
 18 10  1  0
 21  3  1  0
 18 14  1  0
  1 22  1  0
  2 23  1  0
  4 24  1  0
  5 25  1  0
  7 26  1  0
  7 27  1  0
  8 28  1  0
  8 29  1  0
  9 30  1  0
  9 31  1  0
 11 32  1  0
 12 33  1  0
 19 34  1  0
 19 35  1  0
 20 36  1  0
 20 37  1  0
 21 38  1  0
 21 39  1  0
M  END
