
     RDKit          3D

 32 34  0  0  0  0  0  0  0  0999 V2000
    1.0880   -2.4249   -0.0050 O   0  0  0  0  0  0  0  0  0  0  0  0
    1.1093   -1.2231   -0.3236 C   0  0  0  0  0  0  0  0  0  0  0  0
    2.1425   -0.3600    0.2316 C   0  0  0  0  0  0  0  0  0  0  0  0
    3.1256   -0.7632    1.1020 C   0  0  0  0  0  0  0  0  0  0  0  0
    4.0816    0.1113    1.5954 C   0  0  0  0  0  0  0  0  0  0  0  0
    4.0202    1.4305    1.1804 C   0  0  0  0  0  0  0  0  0  0  0  0
    3.0270    1.8453    0.2990 C   0  0  0  0  0  0  0  0  0  0  0  0
    2.0955    0.9586   -0.1722 C   0  0  0  0  0  0  0  0  0  0  0  0
    1.0940    1.4266   -1.0742 N   0  0  0  0  0  0  0  0  0  0  0  0
    0.4707    0.4854   -1.9636 C   0  0  0  0  0  0  0  0  0  0  0  0
    0.1295   -0.7107   -1.2209 N   0  0  0  0  0  0  0  0  0  0  0  0
   -1.1619   -1.3547   -1.3916 C   0  0  0  0  0  0  0  0  0  0  0  0
   -2.1685   -0.8168   -0.4397 C   0  0  0  0  0  0  0  0  0  0  0  0
   -2.9567    0.2657   -0.7765 C   0  0  0  0  0  0  0  0  0  0  0  0
   -3.9022    0.7808    0.1015 C   0  0  0  0  0  0  0  0  0  0  0  0
   -4.0612    0.2054    1.3320 C   0  0  0  0  0  0  0  0  0  0  0  0
   -3.2975   -0.8690    1.7000 C   0  0  0  0  0  0  0  0  0  0  0  0
   -2.3628   -1.3647    0.8101 C   0  0  0  0  0  0  0  0  0  0  0  0
    3.1328   -1.7993    1.3962 H   0  0  0  0  0  0  0  0  0  0  0  0
    4.8572   -0.2012    2.2805 H   0  0  0  0  0  0  0  0  0  0  0  0
    4.7646    2.1013    1.5675 H   0  0  0  0  0  0  0  0  0  0  0  0
    3.0196    2.8793    0.0056 H   0  0  0  0  0  0  0  0  0  0  0  0
    0.8042    2.4345   -1.1039 H   0  0  0  0  0  0  0  0  0  0  0  0
   -0.3883    0.9071   -2.5032 H   0  0  0  0  0  0  0  0  0  0  0  0
    1.2510    0.2127   -2.7311 H   0  0  0  0  0  0  0  0  0  0  0  0
   -1.4718   -1.1921   -2.4391 H   0  0  0  0  0  0  0  0  0  0  0  0
   -1.1097   -2.4487   -1.2313 H   0  0  0  0  0  0  0  0  0  0  0  0
   -2.8232    0.7150   -1.7542 H   0  0  0  0  0  0  0  0  0  0  0  0
   -4.4746    1.6323   -0.2502 H   0  0  0  0  0  0  0  0  0  0  0  0
   -4.8233    0.6552    1.9830 H   0  0  0  0  0  0  0  0  0  0  0  0
   -3.4497   -1.3034    2.6876 H   0  0  0  0  0  0  0  0  0  0  0  0
   -1.7618   -2.2153    1.1079 H   0  0  0  0  0  0  0  0  0  0  0  0
  1  2  2  0
  2  3  1  0
  3  4  2  0
  4  5  1  0
  5  6  2  0
  6  7  1  0
  7  8  2  0
  8  9  1  0
  9 10  1  0
 10 11  1  0
 11 12  1  0
 12 13  1  0
 13 14  2  0
 14 15  1  0
 15 16  2  0
 16 17  1  0
 17 18  2  0
 11  2  1  0
 18 13  1  0
  8  3  1  0
  4 19  1  0
  5 20  1  0
  6 21  1  0
  7 22  1  0
  9 23  1  0
 10 24  1  0
 10 25  1  0
 12 26  1  0
 12 27  1  0
 14 28  1  0
 15 29  1  0
 16 30  1  0
 17 31  1  0
 18 32  1  0
M  END
