
     RDKit          3D

 71 73  0  0  0  0  0  0  0  0999 V2000
   -4.6706   -1.1019   -2.2246 C   0  0  0  0  0  0  0  0  0  0  0  0
   -3.3615   -1.6617   -2.6768 C   0  0  0  0  0  0  0  0  0  0  0  0
   -3.3418   -3.1520   -2.4808 C   0  0  0  0  0  0  0  0  0  0  0  0
   -3.2115   -1.3672   -4.1616 C   0  0  0  0  0  0  0  0  0  0  0  0
   -2.3147   -1.0003   -2.0169 O   0  0  0  0  0  0  0  0  0  0  0  0
   -2.1820   -1.0045   -0.6177 C   0  0  0  0  0  0  0  0  0  0  0  0
   -3.0721   -1.6455   -0.0044 O   0  0  0  0  0  0  0  0  0  0  0  0
   -1.0926   -0.3142    0.0392 C   0  0  0  0  0  0  0  0  0  0  0  0
   -1.0565    0.9876    0.4851 C   0  0  0  0  0  0  0  0  0  0  0  0
   -2.1455    1.9681    0.3826 C   0  0  0  0  0  0  0  0  0  0  0  0
   -1.9435    3.1822    0.8647 C   0  0  0  0  0  0  0  0  0  0  0  0
   -2.9690    4.2211    0.8064 C   0  0  0  0  0  0  0  0  0  0  0  0
   -2.7029    5.4842    1.3299 C   0  0  0  0  0  0  0  0  0  0  0  0
   -3.6398    6.4900    1.2954 C   0  0  0  0  0  0  0  0  0  0  0  0
   -4.8889    6.3057    0.7435 C   0  0  0  0  0  0  0  0  0  0  0  0
   -5.1640    5.0606    0.2225 C   0  0  0  0  0  0  0  0  0  0  0  0
   -4.2156    4.0320    0.2539 C   0  0  0  0  0  0  0  0  0  0  0  0
    0.1353    1.2247    1.0320 O   0  0  0  0  0  0  0  0  0  0  0  0
    0.8873    0.1243    0.9624 C   0  0  0  0  0  0  0  0  0  0  0  0
    2.2180   -0.0192    1.4376 N   0  0  0  0  0  0  0  0  0  0  0  0
    2.9464    1.0439    2.0761 C   0  0  0  0  0  0  0  0  0  0  0  0
    3.1116    2.2460    1.1743 C   0  0  0  0  0  0  0  0  0  0  0  0
    4.2438    2.0783    0.1929 C   0  0  0  0  0  0  0  0  0  0  0  0
    5.5175    1.6071    0.8575 C   0  0  0  0  0  0  0  0  0  0  0  0
    5.3549    1.5057    2.3602 C   0  0  0  0  0  0  0  0  0  0  0  0
    4.2359    0.5191    2.6159 C   0  0  0  0  0  0  0  0  0  0  0  0
    0.1393   -0.8493    0.3457 C   0  0  0  0  0  0  0  0  0  0  0  0
    0.5105   -2.2229    0.0359 C   0  0  0  0  0  0  0  0  0  0  0  0
   -0.3027   -3.0019   -0.5420 O   0  0  0  0  0  0  0  0  0  0  0  0
    1.7420   -2.7914    0.3311 O   0  0  0  0  0  0  0  0  0  0  0  0
    2.1079   -4.1039    0.0395 C   0  0  0  0  0  0  0  0  0  0  0  0
    1.2436   -5.1404    0.6838 C   0  0  0  0  0  0  0  0  0  0  0  0
    2.1577   -4.3837   -1.4492 C   0  0  0  0  0  0  0  0  0  0  0  0
    3.5298   -4.3062    0.5582 C   0  0  0  0  0  0  0  0  0  0  0  0
   -5.0160   -1.7248   -1.3514 H   0  0  0  0  0  0  0  0  0  0  0  0
   -5.4259   -1.1053   -3.0384 H   0  0  0  0  0  0  0  0  0  0  0  0
   -4.4981   -0.0872   -1.8125 H   0  0  0  0  0  0  0  0  0  0  0  0
   -3.8137   -3.6057   -3.3764 H   0  0  0  0  0  0  0  0  0  0  0  0
   -2.3074   -3.5395   -2.4262 H   0  0  0  0  0  0  0  0  0  0  0  0
   -3.9654   -3.4104   -1.6200 H   0  0  0  0  0  0  0  0  0  0  0  0
   -4.1488   -0.9884   -4.6080 H   0  0  0  0  0  0  0  0  0  0  0  0
   -2.4318   -0.6047   -4.3575 H   0  0  0  0  0  0  0  0  0  0  0  0
   -2.9006   -2.2810   -4.7271 H   0  0  0  0  0  0  0  0  0  0  0  0
   -3.0508    1.6586   -0.0758 H   0  0  0  0  0  0  0  0  0  0  0  0
   -0.9869    3.4539    1.3307 H   0  0  0  0  0  0  0  0  0  0  0  0
   -1.7311    5.6598    1.7699 H   0  0  0  0  0  0  0  0  0  0  0  0
   -3.4337    7.4836    1.7060 H   0  0  0  0  0  0  0  0  0  0  0  0
   -5.6026    7.1176    0.7324 H   0  0  0  0  0  0  0  0  0  0  0  0
   -6.1444    4.9168   -0.2104 H   0  0  0  0  0  0  0  0  0  0  0  0
   -4.4746    3.0675   -0.1677 H   0  0  0  0  0  0  0  0  0  0  0  0
    2.6842   -0.9375    1.3157 H   0  0  0  0  0  0  0  0  0  0  0  0
    2.3048    1.3886    2.9354 H   0  0  0  0  0  0  0  0  0  0  0  0
    2.1709    2.3024    0.5637 H   0  0  0  0  0  0  0  0  0  0  0  0
    3.1571    3.2020    1.7339 H   0  0  0  0  0  0  0  0  0  0  0  0
    3.9459    1.4154   -0.6420 H   0  0  0  0  0  0  0  0  0  0  0  0
    4.4573    3.0761   -0.2422 H   0  0  0  0  0  0  0  0  0  0  0  0
    6.3843    2.2399    0.6513 H   0  0  0  0  0  0  0  0  0  0  0  0
    5.7302    0.5894    0.4915 H   0  0  0  0  0  0  0  0  0  0  0  0
    6.2804    1.0670    2.7688 H   0  0  0  0  0  0  0  0  0  0  0  0
    5.0758    2.4681    2.8213 H   0  0  0  0  0  0  0  0  0  0  0  0
    4.1922    0.3218    3.7160 H   0  0  0  0  0  0  0  0  0  0  0  0
    4.4599   -0.4607    2.1490 H   0  0  0  0  0  0  0  0  0  0  0  0
    0.3793   -5.3620    0.0373 H   0  0  0  0  0  0  0  0  0  0  0  0
    0.9604   -4.8980    1.7276 H   0  0  0  0  0  0  0  0  0  0  0  0
    1.8578   -6.0844    0.7458 H   0  0  0  0  0  0  0  0  0  0  0  0
    2.4515   -3.4853   -2.0301 H   0  0  0  0  0  0  0  0  0  0  0  0
    2.9048   -5.1687   -1.6970 H   0  0  0  0  0  0  0  0  0  0  0  0
    1.1806   -4.7286   -1.8154 H   0  0  0  0  0  0  0  0  0  0  0  0
    3.7554   -5.3912    0.6374 H   0  0  0  0  0  0  0  0  0  0  0  0
    4.2039   -3.7888   -0.1333 H   0  0  0  0  0  0  0  0  0  0  0  0
    3.5890   -3.7910    1.5449 H   0  0  0  0  0  0  0  0  0  0  0  0
  1  2  1  0
  2  3  1  0
  2  4  1  0
  2  5  1  0
  5  6  1  0
  6  7  2  0
  6  8  1  0
  8  9  2  0
  9 10  1  0
 10 11  2  3
 11 12  1  0
 12 13  2  0
 13 14  1  0
 14 15  2  0
 15 16  1  0
 16 17  2  0
  9 18  1  0
 18 19  1  0
 19 20  1  0
 20 21  1  0
 21 22  1  0
 22 23  1  0
 23 24  1  0
 24 25  1  0
 25 26  1  0
 19 27  2  0
 27 28  1  0
 28 29  2  0
 28 30  1  0
 30 31  1  0
 31 32  1  0
 31 33  1  0
 31 34  1  0
 27  8  1  0
 17 12  1  0
 26 21  1  0
  1 35  1  0
  1 36  1  0
  1 37  1  0
  3 38  1  0
  3 39  1  0
  3 40  1  0
  4 41  1  0
  4 42  1  0
  4 43  1  0
 10 44  1  0
 11 45  1  0
 13 46  1  0
 14 47  1  0
 15 48  1  0
 16 49  1  0
 17 50  1  0
 20 51  1  0
 21 52  1  0
 22 53  1  0
 22 54  1  0
 23 55  1  0
 23 56  1  0
 24 57  1  0
 24 58  1  0
 25 59  1  0
 25 60  1  0
 26 61  1  0
 26 62  1  0
 32 63  1  0
 32 64  1  0
 32 65  1  0
 33 66  1  0
 33 67  1  0
 33 68  1  0
 34 69  1  0
 34 70  1  0
 34 71  1  0
M  END
