
     RDKit          3D

 36 38  0  0  0  0  0  0  0  0999 V2000
   -5.8806   -1.0916   -0.9060 C   0  0  0  0  0  0  0  0  0  0  0  0
   -5.2174   -0.2353    0.0485 N   0  0  0  0  0  0  0  0  0  0  0  0
   -6.0315    0.5277    0.9673 C   0  0  0  0  0  0  0  0  0  0  0  0
   -3.8052   -0.1136    0.1200 C   0  0  0  0  0  0  0  0  0  0  0  0
   -2.9711   -0.8230   -0.7366 C   0  0  0  0  0  0  0  0  0  0  0  0
   -1.5873   -0.7047   -0.6678 C   0  0  0  0  0  0  0  0  0  0  0  0
   -0.9947    0.1252    0.2581 C   0  0  0  0  0  0  0  0  0  0  0  0
    0.4480    0.2707    0.3554 C   0  0  0  0  0  0  0  0  0  0  0  0
    1.3234   -0.3418   -0.3917 C   0  0  0  0  0  0  0  0  0  0  0  0
    2.7796   -0.1390   -0.2292 C   0  0  0  0  0  0  0  0  0  0  0  0
    3.3980    0.6555    0.6549 N   0  0  0  0  0  0  0  0  0  0  0  0
    4.7202    0.5571    0.4774 C   0  0  0  0  0  0  0  0  0  0  0  0
    5.8399    1.1169    1.0670 C   0  0  0  0  0  0  0  0  0  0  0  0
    7.1107    0.7964    0.6366 C   0  0  0  0  0  0  0  0  0  0  0  0
    7.3148   -0.0921   -0.3955 C   0  0  0  0  0  0  0  0  0  0  0  0
    6.2035   -0.6529   -0.9867 C   0  0  0  0  0  0  0  0  0  0  0  0
    4.9132   -0.3355   -0.5588 C   0  0  0  0  0  0  0  0  0  0  0  0
    3.7171   -0.7165   -0.9390 O   0  0  0  0  0  0  0  0  0  0  0  0
   -1.8230    0.8266    1.1052 C   0  0  0  0  0  0  0  0  0  0  0  0
   -3.1762    0.7065    1.0327 C   0  0  0  0  0  0  0  0  0  0  0  0
   -5.3503   -1.0078   -1.8992 H   0  0  0  0  0  0  0  0  0  0  0  0
   -5.8116   -2.1666   -0.6388 H   0  0  0  0  0  0  0  0  0  0  0  0
   -6.9182   -0.7795   -1.1099 H   0  0  0  0  0  0  0  0  0  0  0  0
   -7.0956    0.5120    0.6691 H   0  0  0  0  0  0  0  0  0  0  0  0
   -5.6626    1.5917    0.8899 H   0  0  0  0  0  0  0  0  0  0  0  0
   -5.9084    0.1913    2.0249 H   0  0  0  0  0  0  0  0  0  0  0  0
   -3.4138   -1.4815   -1.4724 H   0  0  0  0  0  0  0  0  0  0  0  0
   -1.0253   -1.2812   -1.3583 H   0  0  0  0  0  0  0  0  0  0  0  0
    0.8596    0.9456    1.1118 H   0  0  0  0  0  0  0  0  0  0  0  0
    0.9754   -1.0175   -1.1521 H   0  0  0  0  0  0  0  0  0  0  0  0
    5.6528    1.8151    1.8794 H   0  0  0  0  0  0  0  0  0  0  0  0
    7.9854    1.2473    1.1128 H   0  0  0  0  0  0  0  0  0  0  0  0
    8.3314   -0.3325   -0.7214 H   0  0  0  0  0  0  0  0  0  0  0  0
    6.3269   -1.3521   -1.7971 H   0  0  0  0  0  0  0  0  0  0  0  0
   -1.4219    1.5090    1.8707 H   0  0  0  0  0  0  0  0  0  0  0  0
   -3.8051    1.2701    1.7117 H   0  0  0  0  0  0  0  0  0  0  0  0
  1  2  1  0
  2  3  1  0
  2  4  1  0
  4  5  2  0
  5  6  1  0
  6  7  2  0
  7  8  1  0
  8  9  2  0
  9 10  1  0
 10 11  2  0
 11 12  1  0
 12 13  2  0
 13 14  1  0
 14 15  2  0
 15 16  1  0
 16 17  2  0
 17 18  1  0
  7 19  1  0
 19 20  2  0
 20  4  1  0
 18 10  1  0
 17 12  1  0
  1 21  1  0
  1 22  1  0
  1 23  1  0
  3 24  1  0
  3 25  1  0
  3 26  1  0
  5 27  1  0
  6 28  1  0
  8 29  1  0
  9 30  1  0
 13 31  1  0
 14 32  1  0
 15 33  1  0
 16 34  1  0
 19 35  1  0
 20 36  1  0
M  END
