
     RDKit          3D

 48 51  0  0  0  0  0  0  0  0999 V2000
   -6.5047   -1.2016   -1.4977 C   0  0  0  0  0  0  0  0  0  0  0  0
   -5.6724   -1.3116   -0.2144 C   0  0  0  0  0  0  0  0  0  0  0  0
   -5.0586   -0.0880    0.1751 N   0  0  0  0  0  0  0  0  0  0  0  0
   -5.8001    0.9692    0.7855 C   0  0  0  0  0  0  0  0  0  0  0  0
   -6.9415    1.5992    0.1166 C   0  0  0  0  0  0  0  0  0  0  0  0
   -3.6080    0.0705    0.0636 C   0  0  0  0  0  0  0  0  0  0  0  0
   -3.0292    1.3252    0.1420 C   0  0  0  0  0  0  0  0  0  0  0  0
   -1.6379    1.4064    0.3219 C   0  0  0  0  0  0  0  0  0  0  0  0
   -0.8897    0.2752    0.4120 C   0  0  0  0  0  0  0  0  0  0  0  0
    0.4815    0.3463    0.6202 C   0  0  0  0  0  0  0  0  0  0  0  0
    1.2337   -0.7947    0.7059 C   0  0  0  0  0  0  0  0  0  0  0  0
    2.7165   -0.7832    0.7367 C   0  0  0  0  0  0  0  0  0  0  0  0
    3.2562    0.0750   -0.2059 C   0  0  0  0  0  0  0  0  0  0  0  0
    2.2834    0.7534   -1.0020 C   0  0  0  0  0  0  0  0  0  0  0  0
    1.4676    1.3436   -1.6931 N   0  0  0  0  0  0  0  0  0  0  0  0
    4.6798    0.1262   -0.2768 C   0  0  0  0  0  0  0  0  0  0  0  0
    5.4236    0.9428   -1.0753 N   0  0  0  0  0  0  0  0  0  0  0  0
    6.7120    0.6361   -0.7846 C   0  0  0  0  0  0  0  0  0  0  0  0
    7.8979    1.1755   -1.3479 C   0  0  0  0  0  0  0  0  0  0  0  0
    9.0794    0.6390   -0.8541 C   0  0  0  0  0  0  0  0  0  0  0  0
    9.1488   -0.3006    0.0747 C   0  0  0  0  0  0  0  0  0  0  0  0
    7.9680   -0.8311    0.6294 C   0  0  0  0  0  0  0  0  0  0  0  0
    6.7890   -0.2784    0.1014 C   0  0  0  0  0  0  0  0  0  0  0  0
    5.5194   -0.5946    0.4218 O   0  0  0  0  0  0  0  0  0  0  0  0
    0.5876   -2.0049    0.5992 C   0  0  0  0  0  0  0  0  0  0  0  0
    1.2562   -3.0780    0.6768 O   0  0  0  0  0  0  0  0  0  0  0  0
   -0.7335   -2.0847    0.4126 O   0  0  0  0  0  0  0  0  0  0  0  0
   -1.4316   -0.9786    0.3245 C   0  0  0  0  0  0  0  0  0  0  0  0
   -2.8107   -1.0415    0.1446 C   0  0  0  0  0  0  0  0  0  0  0  0
   -6.3707   -0.2413   -2.0141 H   0  0  0  0  0  0  0  0  0  0  0  0
   -7.5755   -1.4066   -1.2963 H   0  0  0  0  0  0  0  0  0  0  0  0
   -6.1372   -1.9791   -2.2178 H   0  0  0  0  0  0  0  0  0  0  0  0
   -5.0479   -2.1870   -0.3329 H   0  0  0  0  0  0  0  0  0  0  0  0
   -6.4058   -1.6443    0.6003 H   0  0  0  0  0  0  0  0  0  0  0  0
   -6.0209    0.5874    1.8356 H   0  0  0  0  0  0  0  0  0  0  0  0
   -5.0998    1.8371    1.0441 H   0  0  0  0  0  0  0  0  0  0  0  0
   -7.4517    2.2370    0.9360 H   0  0  0  0  0  0  0  0  0  0  0  0
   -6.7657    2.3110   -0.6906 H   0  0  0  0  0  0  0  0  0  0  0  0
   -7.7440    0.9322   -0.2812 H   0  0  0  0  0  0  0  0  0  0  0  0
   -3.6023    2.2214    0.0246 H   0  0  0  0  0  0  0  0  0  0  0  0
   -1.1749    2.3899    0.3356 H   0  0  0  0  0  0  0  0  0  0  0  0
    0.9430    1.3321    0.7692 H   0  0  0  0  0  0  0  0  0  0  0  0
    3.3251   -1.3123    1.3501 H   0  0  0  0  0  0  0  0  0  0  0  0
    7.8418    1.9077   -2.0792 H   0  0  0  0  0  0  0  0  0  0  0  0
   10.0388    1.0357   -1.2874 H   0  0  0  0  0  0  0  0  0  0  0  0
   10.1178   -0.7010    0.4348 H   0  0  0  0  0  0  0  0  0  0  0  0
    8.0128   -1.5843    1.3714 H   0  0  0  0  0  0  0  0  0  0  0  0
   -3.2654   -2.0475    0.0538 H   0  0  0  0  0  0  0  0  0  0  0  0
  1  2  1  0
  2  3  1  0
  3  4  1  0
  4  5  1  0
  3  6  1  0
  6  7  2  0
  7  8  1  0
  8  9  2  0
  9 10  1  0
 10 11  2  0
 11 12  1  0
 12 13  2  0
 13 14  1  0
 14 15  3  0
 13 16  1  0
 16 17  2  0
 17 18  1  0
 18 19  2  0
 19 20  1  0
 20 21  2  0
 21 22  1  0
 22 23  2  0
 23 24  1  0
 11 25  1  0
 25 26  2  0
 25 27  1  0
 27 28  1  0
 28 29  2  0
 29  6  1  0
 28  9  1  0
 24 16  1  0
 23 18  1  0
  1 30  1  0
  1 31  1  0
  1 32  1  0
  2 33  1  0
  2 34  1  0
  4 35  1  0
  4 36  1  0
  5 37  1  0
  5 38  1  0
  5 39  1  0
  7 40  1  0
  8 41  1  0
 10 42  1  0
 12 43  1  0
 19 44  1  0
 20 45  1  0
 21 46  1  0
 22 47  1  0
 29 48  1  0
M  END
