
     RDKit          3D

 70 77  0  0  0  0  0  0  0  0999 V2000
   -6.1384   -1.1722   -3.4009 C   0  0  0  0  0  0  0  0  0  0  0  0
   -6.2946   -1.8001   -2.1793 C   0  0  0  0  0  0  0  0  0  0  0  0
   -5.6273   -1.2953   -1.0893 C   0  0  0  0  0  0  0  0  0  0  0  0
   -4.7993   -0.1724   -1.1757 C   0  0  0  0  0  0  0  0  0  0  0  0
   -4.1616    0.2639   -0.0004 N   0  0  0  0  0  0  0  0  0  0  0  0
   -4.9803    0.2859    1.1597 C   0  0  0  0  0  0  0  0  0  0  0  0
   -4.5646   -0.1992    2.3808 C   0  0  0  0  0  0  0  0  0  0  0  0
   -5.4519   -0.1200    3.4346 C   0  0  0  0  0  0  0  0  0  0  0  0
   -6.7178    0.4244    3.2863 C   0  0  0  0  0  0  0  0  0  0  0  0
   -7.1167    0.9042    2.0594 C   0  0  0  0  0  0  0  0  0  0  0  0
   -6.2414    0.8275    1.0147 C   0  0  0  0  0  0  0  0  0  0  0  0
   -2.8239    0.7121    0.1430 C   0  0  0  0  0  0  0  0  0  0  0  0
   -2.5916    2.0291    0.5846 C   0  0  0  0  0  0  0  0  0  0  0  0
   -1.3435    2.5598    0.7567 C   0  0  0  0  0  0  0  0  0  0  0  0
   -0.2372    1.7952    0.4938 C   0  0  0  0  0  0  0  0  0  0  0  0
    1.0377    2.2939    0.6591 C   0  0  0  0  0  0  0  0  0  0  0  0
    2.0952    1.4690    0.3780 C   0  0  0  0  0  0  0  0  0  0  0  0
    1.9635    0.1607   -0.0656 C   0  0  0  0  0  0  0  0  0  0  0  0
    3.0287   -0.6539   -0.3121 C   0  0  0  0  0  0  0  0  0  0  0  0
    4.4158   -0.2711   -0.1372 N   0  0  0  0  0  0  0  0  0  0  0  0
    5.0279    0.4553   -1.1877 C   0  0  0  0  0  0  0  0  0  0  0  0
    4.4418    1.4943   -1.8733 C   0  0  0  0  0  0  0  0  0  0  0  0
    5.0463    2.2195   -2.8985 C   0  0  0  0  0  0  0  0  0  0  0  0
    6.3253    1.8960   -3.2797 C   0  0  0  0  0  0  0  0  0  0  0  0
    6.9454    0.8584   -2.6179 C   0  0  0  0  0  0  0  0  0  0  0  0
    6.3352    0.1403   -1.5958 C   0  0  0  0  0  0  0  0  0  0  0  0
    4.9705   -0.6573    1.1165 C   0  0  0  0  0  0  0  0  0  0  0  0
    6.1704   -1.2766    1.3152 C   0  0  0  0  0  0  0  0  0  0  0  0
    6.6524   -1.5917    2.6003 C   0  0  0  0  0  0  0  0  0  0  0  0
    5.9371   -1.2926    3.7156 C   0  0  0  0  0  0  0  0  0  0  0  0
    4.7251   -0.6721    3.5578 C   0  0  0  0  0  0  0  0  0  0  0  0
    4.2655   -0.3690    2.2998 C   0  0  0  0  0  0  0  0  0  0  0  0
    2.8333   -1.9865   -0.7177 C   0  0  0  0  0  0  0  0  0  0  0  0
    1.5570   -2.4444   -0.8644 C   0  0  0  0  0  0  0  0  0  0  0  0
    0.4527   -1.6291   -0.6230 C   0  0  0  0  0  0  0  0  0  0  0  0
   -0.8246   -2.1398   -0.7779 C   0  0  0  0  0  0  0  0  0  0  0  0
   -1.9041   -1.3342   -0.5236 C   0  0  0  0  0  0  0  0  0  0  0  0
   -1.6920   -0.0374   -0.1141 C   0  0  0  0  0  0  0  0  0  0  0  0
   -0.4021    0.4984    0.0586 C   0  0  0  0  0  0  0  0  0  0  0  0
    0.6612   -0.3277   -0.2236 C   0  0  0  0  0  0  0  0  0  0  0  0
   -4.6450    0.4532   -2.3977 C   0  0  0  0  0  0  0  0  0  0  0  0
   -5.3201   -0.0658   -3.4763 C   0  0  0  0  0  0  0  0  0  0  0  0
   -6.6634   -1.5635   -4.2752 H   0  0  0  0  0  0  0  0  0  0  0  0
   -6.9430   -2.6787   -2.1142 H   0  0  0  0  0  0  0  0  0  0  0  0
   -5.7659   -1.8071   -0.1372 H   0  0  0  0  0  0  0  0  0  0  0  0
   -3.5720   -0.6227    2.4841 H   0  0  0  0  0  0  0  0  0  0  0  0
   -5.1533   -0.4975    4.4234 H   0  0  0  0  0  0  0  0  0  0  0  0
   -7.4286    0.4948    4.1036 H   0  0  0  0  0  0  0  0  0  0  0  0
   -8.1077    1.3423    1.8979 H   0  0  0  0  0  0  0  0  0  0  0  0
   -6.5854    1.2185    0.0438 H   0  0  0  0  0  0  0  0  0  0  0  0
   -3.4415    2.6516    0.7981 H   0  0  0  0  0  0  0  0  0  0  0  0
   -1.2184    3.5985    1.1056 H   0  0  0  0  0  0  0  0  0  0  0  0
    1.1917    3.3249    1.0069 H   0  0  0  0  0  0  0  0  0  0  0  0
    3.0833    1.8540    0.5514 H   0  0  0  0  0  0  0  0  0  0  0  0
    3.4342    1.8015   -1.6899 H   0  0  0  0  0  0  0  0  0  0  0  0
    4.5177    3.0202   -3.3827 H   0  0  0  0  0  0  0  0  0  0  0  0
    6.8329    2.4314   -4.0691 H   0  0  0  0  0  0  0  0  0  0  0  0
    7.9690    0.5709   -2.8965 H   0  0  0  0  0  0  0  0  0  0  0  0
    6.9207   -0.6538   -1.1857 H   0  0  0  0  0  0  0  0  0  0  0  0
    6.7679   -1.5793    0.4948 H   0  0  0  0  0  0  0  0  0  0  0  0
    7.6033   -2.0769    2.6883 H   0  0  0  0  0  0  0  0  0  0  0  0
    6.2663   -1.5145    4.7204 H   0  0  0  0  0  0  0  0  0  0  0  0
    4.1032   -0.4071    4.4240 H   0  0  0  0  0  0  0  0  0  0  0  0
    3.3169    0.0978    2.2310 H   0  0  0  0  0  0  0  0  0  0  0  0
    3.6695   -2.6408   -0.9113 H   0  0  0  0  0  0  0  0  0  0  0  0
    1.3253   -3.4659   -1.1763 H   0  0  0  0  0  0  0  0  0  0  0  0
   -0.9872   -3.1530   -1.0930 H   0  0  0  0  0  0  0  0  0  0  0  0
   -2.9331   -1.7091   -0.6363 H   0  0  0  0  0  0  0  0  0  0  0  0
   -4.0026    1.3182   -2.4467 H   0  0  0  0  0  0  0  0  0  0  0  0
   -5.2103    0.4127   -4.4423 H   0  0  0  0  0  0  0  0  0  0  0  0
  1  2  2  0
  2  3  1  0
  3  4  2  0
  4  5  1  0
  5  6  1  0
  6  7  2  0
  7  8  1  0
  8  9  2  0
  9 10  1  0
 10 11  2  0
  5 12  1  0
 12 13  2  0
 13 14  1  0
 14 15  2  0
 15 16  1  0
 16 17  2  0
 17 18  1  0
 18 19  2  0
 19 20  1  0
 20 21  1  0
 21 22  2  0
 22 23  1  0
 23 24  2  0
 24 25  1  0
 25 26  2  0
 20 27  1  0
 27 28  2  0
 28 29  1  0
 29 30  2  0
 30 31  1  0
 31 32  2  0
 19 33  1  0
 33 34  2  0
 34 35  1  0
 35 36  2  0
 36 37  1  0
 37 38  2  0
 38 39  1  0
 39 40  2  0
  4 41  1  0
 41 42  2  0
 42  1  1  0
 11  6  1  0
 38 12  1  0
 39 15  1  0
 40 18  1  0
 26 21  1  0
 32 27  1  0
 40 35  1  0
  1 43  1  0
  2 44  1  0
  3 45  1  0
  7 46  1  0
  8 47  1  0
  9 48  1  0
 10 49  1  0
 11 50  1  0
 13 51  1  0
 14 52  1  0
 16 53  1  0
 17 54  1  0
 22 55  1  0
 23 56  1  0
 24 57  1  0
 25 58  1  0
 26 59  1  0
 28 60  1  0
 29 61  1  0
 30 62  1  0
 31 63  1  0
 32 64  1  0
 33 65  1  0
 34 66  1  0
 36 67  1  0
 37 68  1  0
 41 69  1  0
 42 70  1  0
M  END
