
     RDKit          3D

 40 41  0  0  0  0  0  0  0  0999 V2000
   -8.4923    0.6212    0.1495 C   0  0  0  0  0  0  0  0  0  0  0  0
   -7.0844    0.6484    0.2725 O   0  0  0  0  0  0  0  0  0  0  0  0
   -6.3423   -0.2167   -0.4989 C   0  0  0  0  0  0  0  0  0  0  0  0
   -6.9384   -0.9922   -1.2777 O   0  0  0  0  0  0  0  0  0  0  0  0
   -4.8891   -0.2297   -0.4110 C   0  0  0  0  0  0  0  0  0  0  0  0
   -4.1369   -1.0876   -1.1748 C   0  0  0  0  0  0  0  0  0  0  0  0
   -2.7706   -1.1069   -1.0990 C   0  0  0  0  0  0  0  0  0  0  0  0
   -2.0549   -0.2582   -0.2429 C   0  0  0  0  0  0  0  0  0  0  0  0
   -0.6511   -0.3682   -0.2326 N   0  0  0  0  0  0  0  0  0  0  0  0
    0.2841    0.4992    0.3599 C   0  0  0  0  0  0  0  0  0  0  0  0
   -0.1828    1.5220    0.9655 O   0  0  0  0  0  0  0  0  0  0  0  0
    1.7260    0.3028    0.3238 C   0  0  0  0  0  0  0  0  0  0  0  0
    2.5208    1.2042    0.9905 C   0  0  0  0  0  0  0  0  0  0  0  0
    3.8793    1.0921    1.0048 C   0  0  0  0  0  0  0  0  0  0  0  0
    4.4957    0.0452    0.3332 C   0  0  0  0  0  0  0  0  0  0  0  0
    5.9039   -0.0971    0.3302 N   0  0  0  0  0  0  0  0  0  0  0  0
    6.4998   -1.2023   -0.3824 C   0  0  0  0  0  0  0  0  0  0  0  0
    6.7593    0.8317    1.0194 C   0  0  0  0  0  0  0  0  0  0  0  0
    3.6780   -0.8402   -0.3242 C   0  0  0  0  0  0  0  0  0  0  0  0
    2.3032   -0.7281   -0.3397 C   0  0  0  0  0  0  0  0  0  0  0  0
   -2.8124    0.5886    0.5104 C   0  0  0  0  0  0  0  0  0  0  0  0
   -4.1893    0.6033    0.4293 C   0  0  0  0  0  0  0  0  0  0  0  0
   -8.9301    1.0266    1.0957 H   0  0  0  0  0  0  0  0  0  0  0  0
   -8.8400    1.2886   -0.6761 H   0  0  0  0  0  0  0  0  0  0  0  0
   -8.8703   -0.4092   -0.0417 H   0  0  0  0  0  0  0  0  0  0  0  0
   -4.6693   -1.7527   -1.8437 H   0  0  0  0  0  0  0  0  0  0  0  0
   -2.1805   -1.7960   -1.7158 H   0  0  0  0  0  0  0  0  0  0  0  0
   -0.2271   -1.2122   -0.7264 H   0  0  0  0  0  0  0  0  0  0  0  0
    2.0799    2.0504    1.5372 H   0  0  0  0  0  0  0  0  0  0  0  0
    4.4968    1.8041    1.5309 H   0  0  0  0  0  0  0  0  0  0  0  0
    6.1790   -2.1284    0.1259 H   0  0  0  0  0  0  0  0  0  0  0  0
    7.6055   -1.1015   -0.4270 H   0  0  0  0  0  0  0  0  0  0  0  0
    6.1282   -1.2735   -1.4251 H   0  0  0  0  0  0  0  0  0  0  0  0
    7.8029    0.7819    0.7091 H   0  0  0  0  0  0  0  0  0  0  0  0
    6.7265    0.5520    2.1098 H   0  0  0  0  0  0  0  0  0  0  0  0
    6.4287    1.8856    0.8825 H   0  0  0  0  0  0  0  0  0  0  0  0
    4.1467   -1.6556   -0.8482 H   0  0  0  0  0  0  0  0  0  0  0  0
    1.7221   -1.4504   -0.8710 H   0  0  0  0  0  0  0  0  0  0  0  0
   -2.3206    1.2723    1.2054 H   0  0  0  0  0  0  0  0  0  0  0  0
   -4.7841    1.2864    1.0377 H   0  0  0  0  0  0  0  0  0  0  0  0
  1  2  1  0
  2  3  1  0
  3  4  2  0
  3  5  1  0
  5  6  2  0
  6  7  1  0
  7  8  2  0
  8  9  1  0
  9 10  1  0
 10 11  2  0
 10 12  1  0
 12 13  2  0
 13 14  1  0
 14 15  2  0
 15 16  1  0
 16 17  1  0
 16 18  1  0
 15 19  1  0
 19 20  2  0
  8 21  1  0
 21 22  2  0
 22  5  1  0
 20 12  1  0
  1 23  1  0
  1 24  1  0
  1 25  1  0
  6 26  1  0
  7 27  1  0
  9 28  1  0
 13 29  1  0
 14 30  1  0
 17 31  1  0
 17 32  1  0
 17 33  1  0
 18 34  1  0
 18 35  1  0
 18 36  1  0
 19 37  1  0
 20 38  1  0
 21 39  1  0
 22 40  1  0
M  END
