
     RDKit          3D

 52 56  0  0  0  0  0  0  0  0999 V2000
   -1.8273    2.6921   -1.1639 O   0  0  0  0  0  0  0  0  0  0  0  0
   -2.4456    1.4865   -1.1672 C   0  0  0  0  0  0  0  0  0  0  0  0
   -3.2560    1.2043   -2.2904 C   0  0  0  0  0  0  0  0  0  0  0  0
   -3.9172    0.0180   -2.3826 C   0  0  0  0  0  0  0  0  0  0  0  0
   -3.7758   -0.8918   -1.3600 C   0  0  0  0  0  0  0  0  0  0  0  0
   -4.4656   -2.0707   -1.5070 C   0  0  0  0  0  0  0  0  0  0  0  0
   -4.3457   -3.0039   -0.5006 C   0  0  0  0  0  0  0  0  0  0  0  0
   -3.5697   -2.7781    0.6132 C   0  0  0  0  0  0  0  0  0  0  0  0
   -2.8788   -1.5728    0.7393 C   0  0  0  0  0  0  0  0  0  0  0  0
   -2.9749   -0.6192   -0.2446 C   0  0  0  0  0  0  0  0  0  0  0  0
   -2.2901    0.5919   -0.1340 C   0  0  0  0  0  0  0  0  0  0  0  0
   -1.4620    0.8610    1.0302 C   0  0  0  0  0  0  0  0  0  0  0  0
   -0.7915    1.9690    1.2058 N   0  0  0  0  0  0  0  0  0  0  0  0
    0.0128    2.2157    2.3493 C   0  0  0  0  0  0  0  0  0  0  0  0
   -0.5421    2.8417    3.4452 C   0  0  0  0  0  0  0  0  0  0  0  0
    0.2272    3.0902    4.5687 C   0  0  0  0  0  0  0  0  0  0  0  0
    1.5501    2.7059    4.5788 C   0  0  0  0  0  0  0  0  0  0  0  0
    2.1032    2.0735    3.4664 C   0  0  0  0  0  0  0  0  0  0  0  0
    1.3322    1.8259    2.3441 C   0  0  0  0  0  0  0  0  0  0  0  0
    1.8199    1.1899    1.1776 N   0  0  0  0  0  0  0  0  0  0  0  0
    1.6042   -0.0284    0.9274 C   0  0  0  0  0  0  0  0  0  0  0  0
    1.9999   -0.8517   -0.1760 C   0  0  0  0  0  0  0  0  0  0  0  0
    1.6033   -2.1960   -0.1785 C   0  0  0  0  0  0  0  0  0  0  0  0
    0.8554   -2.6713    0.8692 O   0  0  0  0  0  0  0  0  0  0  0  0
    1.9641   -3.0227   -1.2234 C   0  0  0  0  0  0  0  0  0  0  0  0
    2.7108   -2.5745   -2.2829 C   0  0  0  0  0  0  0  0  0  0  0  0
    3.1008   -1.2607   -2.2845 C   0  0  0  0  0  0  0  0  0  0  0  0
    3.8497   -0.8288   -3.3563 C   0  0  0  0  0  0  0  0  0  0  0  0
    4.2518    0.4891   -3.3767 C   0  0  0  0  0  0  0  0  0  0  0  0
    3.9271    1.3636   -2.3696 C   0  0  0  0  0  0  0  0  0  0  0  0
    3.1619    0.8794   -1.2966 C   0  0  0  0  0  0  0  0  0  0  0  0
    2.7441   -0.4094   -1.2341 C   0  0  0  0  0  0  0  0  0  0  0  0
   -1.2314    3.1830   -0.5822 H   0  0  0  0  0  0  0  0  0  0  0  0
   -3.3441    1.9503   -3.0818 H   0  0  0  0  0  0  0  0  0  0  0  0
   -4.5267   -0.1618   -3.2553 H   0  0  0  0  0  0  0  0  0  0  0  0
   -5.0888   -2.3016   -2.3587 H   0  0  0  0  0  0  0  0  0  0  0  0
   -4.8608   -3.9686   -0.5376 H   0  0  0  0  0  0  0  0  0  0  0  0
   -3.4575   -3.4939    1.4194 H   0  0  0  0  0  0  0  0  0  0  0  0
   -2.2693   -1.3985    1.6167 H   0  0  0  0  0  0  0  0  0  0  0  0
   -1.3258    0.1726    1.8533 H   0  0  0  0  0  0  0  0  0  0  0  0
   -1.5630    3.1490    3.4628 H   0  0  0  0  0  0  0  0  0  0  0  0
   -0.2377    3.5900    5.4286 H   0  0  0  0  0  0  0  0  0  0  0  0
    2.1631    2.8866    5.4328 H   0  0  0  0  0  0  0  0  0  0  0  0
    3.1370    1.7578    3.4379 H   0  0  0  0  0  0  0  0  0  0  0  0
    0.9928   -0.5200    1.7311 H   0  0  0  0  0  0  0  0  0  0  0  0
    0.5693   -3.6388    0.8685 H   0  0  0  0  0  0  0  0  0  0  0  0
    1.6551   -4.0756   -1.2282 H   0  0  0  0  0  0  0  0  0  0  0  0
    2.9661   -3.2725   -3.0800 H   0  0  0  0  0  0  0  0  0  0  0  0
    4.1434   -1.4520   -4.1813 H   0  0  0  0  0  0  0  0  0  0  0  0
    4.8465    0.8877   -4.1992 H   0  0  0  0  0  0  0  0  0  0  0  0
    4.2308    2.4026   -2.3628 H   0  0  0  0  0  0  0  0  0  0  0  0
    2.9247    1.5863   -0.5262 H   0  0  0  0  0  0  0  0  0  0  0  0
  1  2  1  0
  2  3  2  0
  3  4  1  0
  4  5  2  0
  5  6  1  0
  6  7  2  0
  7  8  1  0
  8  9  2  0
  9 10  1  0
 10 11  2  0
 11 12  1  0
 12 13  2  0
 13 14  1  0
 14 15  2  0
 15 16  1  0
 16 17  2  0
 17 18  1  0
 18 19  2  0
 19 20  1  0
 20 21  2  0
 21 22  1  0
 22 23  2  0
 23 24  1  0
 23 25  1  0
 25 26  2  0
 26 27  1  0
 27 28  2  0
 28 29  1  0
 29 30  2  0
 30 31  1  0
 31 32  2  0
 11  2  1  0
 19 14  1  0
 32 22  1  0
 10  5  1  0
 32 27  1  0
  1 33  1  0
  3 34  1  0
  4 35  1  0
  6 36  1  0
  7 37  1  0
  8 38  1  0
  9 39  1  0
 12 40  1  0
 15 41  1  0
 16 42  1  0
 17 43  1  0
 18 44  1  0
 21 45  1  0
 24 46  1  0
 25 47  1  0
 26 48  1  0
 28 49  1  0
 29 50  1  0
 30 51  1  0
 31 52  1  0
M  END
