
     RDKit          3D

 83 86  0  0  0  0  0  0  0  0999 V2000
    8.2406    0.3889   -1.5915 C   0  0  0  0  0  0  0  0  0  0  0  0
    8.2715   -0.6727   -0.5496 C   0  0  0  0  0  0  0  0  0  0  0  0
    7.6228   -0.3048    0.7655 C   0  0  0  0  0  0  0  0  0  0  0  0
    8.2236    0.9033    1.4126 C   0  0  0  0  0  0  0  0  0  0  0  0
    8.0910   -1.4820    1.7076 C   0  0  0  0  0  0  0  0  0  0  0  0
    6.1469   -0.3041    0.7593 C   0  0  0  0  0  0  0  0  0  0  0  0
    5.4500   -0.8209    1.8716 C   0  0  0  0  0  0  0  0  0  0  0  0
    4.0819   -0.8953    1.9021 C   0  0  0  0  0  0  0  0  0  0  0  0
    3.3020   -0.4743    0.8537 C   0  0  0  0  0  0  0  0  0  0  0  0
    1.8260   -0.6727    0.8920 C   0  0  0  0  0  0  0  0  0  0  0  0
    1.3412   -1.7855    1.5452 C   0  0  0  0  0  0  0  0  0  0  0  0
    0.0213   -2.0809    1.5546 C   0  0  0  0  0  0  0  0  0  0  0  0
   -0.8832   -1.2507    0.8926 C   0  0  0  0  0  0  0  0  0  0  0  0
   -0.4036   -0.1607    0.2638 C   0  0  0  0  0  0  0  0  0  0  0  0
    0.9393    0.1555    0.2435 C   0  0  0  0  0  0  0  0  0  0  0  0
   -1.5693    0.6455   -0.3325 C   0  0  0  0  0  0  0  0  0  0  0  0
   -1.7477    1.7195    0.7331 C   0  0  0  0  0  0  0  0  0  0  0  0
   -2.7827    2.7230    0.5846 C   0  0  0  0  0  0  0  0  0  0  0  0
   -2.7948    3.5870    1.7037 O   0  0  0  0  0  0  0  0  0  0  0  0
   -3.0110    2.9764    2.8948 C   0  0  0  0  0  0  0  0  0  0  0  0
   -1.1138    1.0432   -1.6482 C   0  0  0  0  0  0  0  0  0  0  0  0
   -1.9862    1.7853   -2.5770 C   0  0  0  0  0  0  0  0  0  0  0  0
   -1.3040    2.1163   -3.7522 O   0  0  0  0  0  0  0  0  0  0  0  0
   -0.2132    2.9527   -3.5302 C   0  0  0  0  0  0  0  0  0  0  0  0
   -2.6656   -0.3325   -0.2102 C   0  0  0  0  0  0  0  0  0  0  0  0
   -3.9862   -0.3660   -0.6953 C   0  0  0  0  0  0  0  0  0  0  0  0
   -4.8673   -1.3716   -0.3760 C   0  0  0  0  0  0  0  0  0  0  0  0
   -6.2452   -1.4572   -0.9205 C   0  0  0  0  0  0  0  0  0  0  0  0
   -6.5465   -0.4527   -1.9869 C   0  0  0  0  0  0  0  0  0  0  0  0
   -6.3414   -2.8361   -1.6151 C   0  0  0  0  0  0  0  0  0  0  0  0
   -7.3040   -1.4469    0.1275 C   0  0  0  0  0  0  0  0  0  0  0  0
   -7.3001   -0.2100    0.9746 C   0  0  0  0  0  0  0  0  0  0  0  0
   -4.4466   -2.4003    0.4603 C   0  0  0  0  0  0  0  0  0  0  0  0
   -3.1670   -2.4176    0.9607 C   0  0  0  0  0  0  0  0  0  0  0  0
   -2.3025   -1.3671    0.6007 C   0  0  0  0  0  0  0  0  0  0  0  0
    3.9470    0.0392   -0.2443 C   0  0  0  0  0  0  0  0  0  0  0  0
    5.3480    0.1173   -0.2772 C   0  0  0  0  0  0  0  0  0  0  0  0
    9.3164    0.4893   -1.9709 H   0  0  0  0  0  0  0  0  0  0  0  0
    7.6939    0.0522   -2.5140 H   0  0  0  0  0  0  0  0  0  0  0  0
    7.9869    1.3973   -1.2571 H   0  0  0  0  0  0  0  0  0  0  0  0
    9.2787   -1.1294   -0.3924 H   0  0  0  0  0  0  0  0  0  0  0  0
    7.6427   -1.5431   -0.9260 H   0  0  0  0  0  0  0  0  0  0  0  0
    7.5314    1.7857    1.4139 H   0  0  0  0  0  0  0  0  0  0  0  0
    9.2055    1.1781    0.9409 H   0  0  0  0  0  0  0  0  0  0  0  0
    8.4586    0.7269    2.4745 H   0  0  0  0  0  0  0  0  0  0  0  0
    7.3302   -2.2650    1.5480 H   0  0  0  0  0  0  0  0  0  0  0  0
    9.0414   -1.8751    1.3510 H   0  0  0  0  0  0  0  0  0  0  0  0
    8.0725   -1.1703    2.7498 H   0  0  0  0  0  0  0  0  0  0  0  0
    6.0689   -1.1538    2.7085 H   0  0  0  0  0  0  0  0  0  0  0  0
    3.5676   -1.2997    2.7779 H   0  0  0  0  0  0  0  0  0  0  0  0
    2.0481   -2.4508    2.0765 H   0  0  0  0  0  0  0  0  0  0  0  0
   -0.3916   -2.9525    2.0675 H   0  0  0  0  0  0  0  0  0  0  0  0
    1.3275    1.0254   -0.2712 H   0  0  0  0  0  0  0  0  0  0  0  0
   -0.7661    2.1710    1.0175 H   0  0  0  0  0  0  0  0  0  0  0  0
   -2.0247    1.0860    1.6486 H   0  0  0  0  0  0  0  0  0  0  0  0
   -3.8200    2.2789    0.5917 H   0  0  0  0  0  0  0  0  0  0  0  0
   -2.6630    3.4480   -0.2536 H   0  0  0  0  0  0  0  0  0  0  0  0
   -3.0816    3.7342    3.7298 H   0  0  0  0  0  0  0  0  0  0  0  0
   -3.9525    2.4126    2.8836 H   0  0  0  0  0  0  0  0  0  0  0  0
   -2.1683    2.2828    3.1329 H   0  0  0  0  0  0  0  0  0  0  0  0
   -0.0959    1.5174   -1.5317 H   0  0  0  0  0  0  0  0  0  0  0  0
   -0.8326    0.0805   -2.2005 H   0  0  0  0  0  0  0  0  0  0  0  0
   -2.5378    2.6390   -2.2678 H   0  0  0  0  0  0  0  0  0  0  0  0
   -2.7649    1.0265   -2.9499 H   0  0  0  0  0  0  0  0  0  0  0  0
   -0.5207    3.9207   -3.0300 H   0  0  0  0  0  0  0  0  0  0  0  0
    0.1160    3.3040   -4.5541 H   0  0  0  0  0  0  0  0  0  0  0  0
    0.6604    2.4782   -3.0825 H   0  0  0  0  0  0  0  0  0  0  0  0
   -4.3404    0.4118   -1.3251 H   0  0  0  0  0  0  0  0  0  0  0  0
   -6.8747    0.5286   -1.6200 H   0  0  0  0  0  0  0  0  0  0  0  0
   -7.3624   -0.8657   -2.6623 H   0  0  0  0  0  0  0  0  0  0  0  0
   -5.6708   -0.3052   -2.6800 H   0  0  0  0  0  0  0  0  0  0  0  0
   -6.5817   -3.5747   -0.8219 H   0  0  0  0  0  0  0  0  0  0  0  0
   -7.1158   -2.8408   -2.3909 H   0  0  0  0  0  0  0  0  0  0  0  0
   -5.3501   -3.1215   -2.0326 H   0  0  0  0  0  0  0  0  0  0  0  0
   -8.2779   -1.5313   -0.3720 H   0  0  0  0  0  0  0  0  0  0  0  0
   -7.2293   -2.3072    0.8201 H   0  0  0  0  0  0  0  0  0  0  0  0
   -6.3776   -0.1242    1.5967 H   0  0  0  0  0  0  0  0  0  0  0  0
   -7.5075    0.7133    0.3943 H   0  0  0  0  0  0  0  0  0  0  0  0
   -8.1421   -0.3041    1.7107 H   0  0  0  0  0  0  0  0  0  0  0  0
   -5.1400   -3.1845    0.7200 H   0  0  0  0  0  0  0  0  0  0  0  0
   -2.8195   -3.1994    1.6038 H   0  0  0  0  0  0  0  0  0  0  0  0
    3.3673    0.3821   -1.0843 H   0  0  0  0  0  0  0  0  0  0  0  0
    5.8241    0.5375   -1.1646 H   0  0  0  0  0  0  0  0  0  0  0  0
  1  2  1  0
  2  3  1  0
  3  4  1  0
  3  5  1  0
  3  6  1  0
  6  7  2  0
  7  8  1  0
  8  9  2  0
  9 10  1  0
 10 11  2  0
 11 12  1  0
 12 13  2  0
 13 14  1  0
 14 15  2  0
 14 16  1  0
 16 17  1  0
 17 18  1  0
 18 19  1  0
 19 20  1  0
 16 21  1  0
 21 22  1  0
 22 23  1  0
 23 24  1  0
 16 25  1  0
 25 26  2  0
 26 27  1  0
 27 28  1  0
 28 29  1  0
 28 30  1  0
 28 31  1  0
 31 32  1  0
 27 33  2  0
 33 34  1  0
 34 35  2  0
  9 36  1  0
 36 37  2  0
 37  6  1  0
 15 10  1  0
 35 25  1  0
 35 13  1  0
  1 38  1  0
  1 39  1  0
  1 40  1  0
  2 41  1  0
  2 42  1  0
  4 43  1  0
  4 44  1  0
  4 45  1  0
  5 46  1  0
  5 47  1  0
  5 48  1  0
  7 49  1  0
  8 50  1  0
 11 51  1  0
 12 52  1  0
 15 53  1  0
 17 54  1  0
 17 55  1  0
 18 56  1  0
 18 57  1  0
 20 58  1  0
 20 59  1  0
 20 60  1  0
 21 61  1  0
 21 62  1  0
 22 63  1  0
 22 64  1  0
 24 65  1  0
 24 66  1  0
 24 67  1  0
 26 68  1  0
 29 69  1  0
 29 70  1  0
 29 71  1  0
 30 72  1  0
 30 73  1  0
 30 74  1  0
 31 75  1  0
 31 76  1  0
 32 77  1  0
 32 78  1  0
 32 79  1  0
 33 80  1  0
 34 81  1  0
 36 82  1  0
 37 83  1  0
M  END
