
     RDKit          3D

 50 55  0  0  0  0  0  0  0  0999 V2000
    6.6057   -5.1158    0.3978 N   0  0  0  0  0  0  0  0  0  0  0  0
    6.1516   -3.8839    0.1813 C   0  0  0  0  0  0  0  0  0  0  0  0
    5.6536   -2.5428   -0.0293 C   0  0  0  0  0  0  0  0  0  0  0  0
    6.5427   -1.5760   -0.6027 C   0  0  0  0  0  0  0  0  0  0  0  0
    7.2826   -0.7876   -1.0802 N   0  0  0  0  0  0  0  0  0  0  0  0
    4.4221   -2.3319    0.2017 C   0  0  0  0  0  0  0  0  0  0  0  0
    3.3305   -1.4040    0.2277 C   0  0  0  0  0  0  0  0  0  0  0  0
    2.5917   -1.2053   -0.9536 C   0  0  0  0  0  0  0  0  0  0  0  0
    1.3663   -0.5519   -0.7575 C   0  0  0  0  0  0  0  0  0  0  0  0
    0.9329   -0.1443    0.4887 C   0  0  0  0  0  0  0  0  0  0  0  0
    1.7222   -0.3695    1.6213 C   0  0  0  0  0  0  0  0  0  0  0  0
    2.9264   -1.0043    1.4551 C   0  0  0  0  0  0  0  0  0  0  0  0
    1.0142    0.0732    2.7485 C   0  0  0  0  0  0  0  0  0  0  0  0
    1.3049    0.0794    4.1087 C   0  0  0  0  0  0  0  0  0  0  0  0
    0.3285    0.6028    5.0445 C   0  0  0  0  0  0  0  0  0  0  0  0
   -0.8097    1.0500    4.4676 C   0  0  0  0  0  0  0  0  0  0  0  0
   -1.1829    1.0837    3.1748 C   0  0  0  0  0  0  0  0  0  0  0  0
   -0.1921    0.5590    2.2986 C   0  0  0  0  0  0  0  0  0  0  0  0
   -0.1942    0.4136    1.0343 N   0  0  0  0  0  0  0  0  0  0  0  0
   -1.3350    0.6140    0.0858 C   0  0  0  0  0  0  0  0  0  0  0  0
   -2.3734   -0.2416    0.3801 C   0  0  0  0  0  0  0  0  0  0  0  0
   -3.3704   -0.2203   -0.6855 C   0  0  0  0  0  0  0  0  0  0  0  0
   -4.3866   -1.1352   -0.3894 C   0  0  0  0  0  0  0  0  0  0  0  0
   -5.2908   -1.1360   -1.4211 C   0  0  0  0  0  0  0  0  0  0  0  0
   -5.1272   -0.3748   -2.4503 C   0  0  0  0  0  0  0  0  0  0  0  0
   -4.3210    0.5606   -3.0188 C   0  0  0  0  0  0  0  0  0  0  0  0
   -3.1901    0.5692   -1.7389 C   0  0  0  0  0  0  0  0  0  0  0  0
   -2.1679    1.3777   -1.9259 C   0  0  0  0  0  0  0  0  0  0  0  0
   -2.0067    2.2318   -3.0142 C   0  0  0  0  0  0  0  0  0  0  0  0
   -0.9196    3.0176   -3.0866 C   0  0  0  0  0  0  0  0  0  0  0  0
    0.1233    3.1141   -2.1991 C   0  0  0  0  0  0  0  0  0  0  0  0
   -0.0442    2.2386   -1.0674 C   0  0  0  0  0  0  0  0  0  0  0  0
   -1.1069    1.4265   -0.9296 C   0  0  0  0  0  0  0  0  0  0  0  0
    3.9249   -3.3772    0.5620 H   0  0  0  0  0  0  0  0  0  0  0  0
    2.9832   -1.5370   -1.8821 H   0  0  0  0  0  0  0  0  0  0  0  0
    0.7951   -0.3953   -1.6608 H   0  0  0  0  0  0  0  0  0  0  0  0
    3.5112   -1.1814    2.3560 H   0  0  0  0  0  0  0  0  0  0  0  0
    2.2368   -0.3085    4.4660 H   0  0  0  0  0  0  0  0  0  0  0  0
    0.6030    0.5801    6.0563 H   0  0  0  0  0  0  0  0  0  0  0  0
   -1.5424    1.4971    5.2079 H   0  0  0  0  0  0  0  0  0  0  0  0
   -2.0827    1.4373    2.7321 H   0  0  0  0  0  0  0  0  0  0  0  0
   -2.5086   -0.8530    1.2182 H   0  0  0  0  0  0  0  0  0  0  0  0
   -4.4264   -1.7140    0.4771 H   0  0  0  0  0  0  0  0  0  0  0  0
   -6.1533   -1.8209   -1.3156 H   0  0  0  0  0  0  0  0  0  0  0  0
   -6.0443   -0.4757   -3.2676 H   0  0  0  0  0  0  0  0  0  0  0  0
   -3.7433    1.1809   -3.3179 H   0  0  0  0  0  0  0  0  0  0  0  0
   -2.7253    2.3110   -3.8007 H   0  0  0  0  0  0  0  0  0  0  0  0
   -0.8118    3.7092   -3.9817 H   0  0  0  0  0  0  0  0  0  0  0  0
    0.9751    3.6989   -2.1779 H   0  0  0  0  0  0  0  0  0  0  0  0
    0.7282    2.2616   -0.3089 H   0  0  0  0  0  0  0  0  0  0  0  0
  1  2  3  0
  2  3  1  0
  3  4  1  0
  4  5  3  0
  3  6  2  3
  6  7  1  0
  7  8  2  0
  8  9  1  0
  9 10  2  0
 10 11  1  0
 11 12  2  0
 11 13  1  0
 13 14  2  0
 14 15  1  0
 15 16  2  0
 16 17  1  0
 17 18  2  0
 18 19  1  0
 19 20  1  0
 20 21  2  0
 21 22  1  0
 22 23  2  0
 23 24  1  0
 24 25  2  0
 25 26  1  0
 26 27  2  0
 27 28  1  0
 28 29  2  0
 29 30  1  0
 30 31  2  0
 31 32  1  0
 32 33  2  0
 12  7  1  0
 18 13  1  0
 33 20  1  0
 19 10  1  0
 27 22  1  0
 33 28  1  0
  6 34  1  0
  8 35  1  0
  9 36  1  0
 12 37  1  0
 14 38  1  0
 15 39  1  0
 16 40  1  0
 17 41  1  0
 21 42  1  0
 23 43  1  0
 24 44  1  0
 25 45  1  0
 26 46  1  0
 29 47  1  0
 30 48  1  0
 31 49  1  0
 32 50  1  0
M  END
