
     RDKit          3D

101104  0  0  0  0  0  0  0  0999 V2000
   14.8811   -1.4361   -0.5541 C   0  0  0  0  0  0  0  0  0  0  0  0
   14.5368    0.0237   -0.5374 C   0  0  0  0  0  0  0  0  0  0  0  0
   13.0281    0.2229   -0.2046 C   0  0  0  0  0  0  0  0  0  0  0  0
   12.7341   -0.3518    1.1262 C   0  0  0  0  0  0  0  0  0  0  0  0
   11.3571   -0.3428    1.6385 C   0  0  0  0  0  0  0  0  0  0  0  0
   10.6332    0.9100    1.8956 C   0  0  0  0  0  0  0  0  0  0  0  0
   10.3433    1.8492    0.7934 C   0  0  0  0  0  0  0  0  0  0  0  0
    9.5665    1.2375   -0.3420 C   0  0  0  0  0  0  0  0  0  0  0  0
    8.2094    0.7021    0.0880 C   0  0  0  0  0  0  0  0  0  0  0  0
    7.5646    0.1187   -1.1292 C   0  0  0  0  0  0  0  0  0  0  0  0
    6.2133   -0.4594   -0.8990 C   0  0  0  0  0  0  0  0  0  0  0  0
    5.2435    0.6102   -0.3945 C   0  0  0  0  0  0  0  0  0  0  0  0
    3.9179   -0.1004   -0.2121 C   0  0  0  0  0  0  0  0  0  0  0  0
    2.8165    0.8039    0.2696 C   0  0  0  0  0  0  0  0  0  0  0  0
    1.5245    0.0484    0.4401 C   0  0  0  0  0  0  0  0  0  0  0  0
    1.0577   -0.5849   -0.8296 C   0  0  0  0  0  0  0  0  0  0  0  0
    0.8104    0.3780   -1.9507 C   0  0  0  0  0  0  0  0  0  0  0  0
   -0.2448    1.4057   -1.6780 C   0  0  0  0  0  0  0  0  0  0  0  0
   -1.4468    0.7270   -1.4344 O   0  0  0  0  0  0  0  0  0  0  0  0
   -2.6704    1.3099   -1.1670 C   0  0  0  0  0  0  0  0  0  0  0  0
   -2.7193    2.5610   -1.1376 O   0  0  0  0  0  0  0  0  0  0  0  0
   -3.8341    0.4638   -0.9355 C   0  0  0  0  0  0  0  0  0  0  0  0
   -5.0427    0.8989   -0.6857 C   0  0  0  0  0  0  0  0  0  0  0  0
   -6.1779   -0.0184   -0.4618 C   0  0  0  0  0  0  0  0  0  0  0  0
   -7.4211    0.3411   -0.2074 C   0  0  0  0  0  0  0  0  0  0  0  0
   -8.2315   -0.8589   -0.0518 C   0  0  0  0  0  0  0  0  0  0  0  0
   -9.5205   -1.0538    0.2096 C   0  0  0  0  0  0  0  0  0  0  0  0
  -10.3551    0.1165    0.3925 C   0  0  0  0  0  0  0  0  0  0  0  0
  -11.4147    0.2907   -0.4958 C   0  0  0  0  0  0  0  0  0  0  0  0
  -11.6164   -0.6659   -1.6238 C   0  0  0  0  0  0  0  0  0  0  0  0
  -12.3055    1.3547   -0.3901 C   0  0  0  0  0  0  0  0  0  0  0  0
  -12.1685    2.2888    0.6124 C   0  0  0  0  0  0  0  0  0  0  0  0
  -13.1149    3.4203    0.7262 C   0  0  0  0  0  0  0  0  0  0  0  0
  -11.1171    2.1035    1.4819 C   0  0  0  0  0  0  0  0  0  0  0  0
  -10.2259    1.0461    1.3840 C   0  0  0  0  0  0  0  0  0  0  0  0
   -9.1205    0.8776    2.3752 C   0  0  0  0  0  0  0  0  0  0  0  0
  -10.0595   -2.3976    0.3207 C   0  0  0  0  0  0  0  0  0  0  0  0
  -11.3713   -2.7944    0.6068 C   0  0  0  0  0  0  0  0  0  0  0  0
  -11.3923   -4.1817    0.6227 C   0  0  0  0  0  0  0  0  0  0  0  0
  -10.1122   -4.5882    0.3505 C   0  0  0  0  0  0  0  0  0  0  0  0
   -9.3062   -3.4783    0.1675 N   0  0  0  0  0  0  0  0  0  0  0  0
   -7.8311   -3.4035   -0.1519 B   0  0  0  0  0  4  0  0  0  0  0  0
   -7.1189   -4.0532    0.9627 F   0  0  0  0  0  0  0  0  0  0  0  0
   -7.4925   -4.1336   -1.3670 F   0  0  0  0  0  0  0  0  0  0  0  0
   -7.3543   -1.9609   -0.2377 N   0  0  0  0  0  4  0  0  0  0  0  0
   -6.1591   -1.4647   -0.4763 C   0  0  0  0  0  0  0  0  0  0  0  0
   14.0280   -2.0764   -0.8449 H   0  0  0  0  0  0  0  0  0  0  0  0
   15.7233   -1.6220   -1.2676 H   0  0  0  0  0  0  0  0  0  0  0  0
   15.2243   -1.7840    0.4396 H   0  0  0  0  0  0  0  0  0  0  0  0
   14.6887    0.5271   -1.4986 H   0  0  0  0  0  0  0  0  0  0  0  0
   15.1301    0.5394    0.2248 H   0  0  0  0  0  0  0  0  0  0  0  0
   12.9335    1.3175   -0.2232 H   0  0  0  0  0  0  0  0  0  0  0  0
   12.4417   -0.2195   -1.0101 H   0  0  0  0  0  0  0  0  0  0  0  0
   13.3909    0.1511    1.9246 H   0  0  0  0  0  0  0  0  0  0  0  0
   13.1604   -1.4164    1.1581 H   0  0  0  0  0  0  0  0  0  0  0  0
   11.3543   -1.0031    2.5918 H   0  0  0  0  0  0  0  0  0  0  0  0
   10.6718   -0.9659    0.9438 H   0  0  0  0  0  0  0  0  0  0  0  0
    9.6874    0.6251    2.4533 H   0  0  0  0  0  0  0  0  0  0  0  0
   11.1919    1.5230    2.6872 H   0  0  0  0  0  0  0  0  0  0  0  0
    9.6129    2.6670    1.2016 H   0  0  0  0  0  0  0  0  0  0  0  0
   11.2026    2.3843    0.4413 H   0  0  0  0  0  0  0  0  0  0  0  0
    9.3850    2.0582   -1.0887 H   0  0  0  0  0  0  0  0  0  0  0  0
   10.1504    0.4601   -0.8698 H   0  0  0  0  0  0  0  0  0  0  0  0
    8.2930   -0.0164    0.9136 H   0  0  0  0  0  0  0  0  0  0  0  0
    7.5853    1.5578    0.4367 H   0  0  0  0  0  0  0  0  0  0  0  0
    7.5574    0.9021   -1.9137 H   0  0  0  0  0  0  0  0  0  0  0  0
    8.2211   -0.7081   -1.5123 H   0  0  0  0  0  0  0  0  0  0  0  0
    6.2667   -1.2877   -0.1609 H   0  0  0  0  0  0  0  0  0  0  0  0
    5.8509   -0.9068   -1.8414 H   0  0  0  0  0  0  0  0  0  0  0  0
    5.1582    1.3700   -1.1946 H   0  0  0  0  0  0  0  0  0  0  0  0
    5.6129    1.0802    0.5232 H   0  0  0  0  0  0  0  0  0  0  0  0
    4.0414   -0.9948    0.4097 H   0  0  0  0  0  0  0  0  0  0  0  0
    3.6284   -0.4558   -1.2392 H   0  0  0  0  0  0  0  0  0  0  0  0
    2.7024    1.6311   -0.4638 H   0  0  0  0  0  0  0  0  0  0  0  0
    3.1573    1.2462    1.2270 H   0  0  0  0  0  0  0  0  0  0  0  0
    0.7532    0.6425    0.9523 H   0  0  0  0  0  0  0  0  0  0  0  0
    1.7554   -0.8039    1.1450 H   0  0  0  0  0  0  0  0  0  0  0  0
    0.1591   -1.2088   -0.6073 H   0  0  0  0  0  0  0  0  0  0  0  0
    1.8220   -1.3134   -1.1673 H   0  0  0  0  0  0  0  0  0  0  0  0
    1.7525    0.8521   -2.3058 H   0  0  0  0  0  0  0  0  0  0  0  0
    0.4723   -0.2475   -2.8252 H   0  0  0  0  0  0  0  0  0  0  0  0
   -0.0038    2.0735   -0.8425 H   0  0  0  0  0  0  0  0  0  0  0  0
   -0.2929    2.0589   -2.5851 H   0  0  0  0  0  0  0  0  0  0  0  0
   -3.7138   -0.6155   -0.9675 H   0  0  0  0  0  0  0  0  0  0  0  0
   -5.2132    1.9624   -0.6424 H   0  0  0  0  0  0  0  0  0  0  0  0
   -7.8140    1.3385   -0.1273 H   0  0  0  0  0  0  0  0  0  0  0  0
  -10.7249   -1.2830   -1.7660 H   0  0  0  0  0  0  0  0  0  0  0  0
  -12.5654   -1.2166   -1.5033 H   0  0  0  0  0  0  0  0  0  0  0  0
  -11.7348   -0.0515   -2.5655 H   0  0  0  0  0  0  0  0  0  0  0  0
  -13.1150    1.4527   -1.1001 H   0  0  0  0  0  0  0  0  0  0  0  0
  -14.0716    3.1077    0.2706 H   0  0  0  0  0  0  0  0  0  0  0  0
  -13.2112    3.6769    1.7991 H   0  0  0  0  0  0  0  0  0  0  0  0
  -12.7485    4.2896    0.1147 H   0  0  0  0  0  0  0  0  0  0  0  0
  -10.9967    2.8241    2.2695 H   0  0  0  0  0  0  0  0  0  0  0  0
   -8.6695   -0.1118    2.3441 H   0  0  0  0  0  0  0  0  0  0  0  0
   -8.3776    1.6693    2.1709 H   0  0  0  0  0  0  0  0  0  0  0  0
   -9.5168    1.1289    3.4051 H   0  0  0  0  0  0  0  0  0  0  0  0
  -12.1762   -2.1143    0.7792 H   0  0  0  0  0  0  0  0  0  0  0  0
  -12.2773   -4.7851    0.8181 H   0  0  0  0  0  0  0  0  0  0  0  0
   -9.7506   -5.6116    0.2813 H   0  0  0  0  0  0  0  0  0  0  0  0
   -5.2858   -2.0787   -0.6579 H   0  0  0  0  0  0  0  0  0  0  0  0
  1  2  1  0
  2  3  1  0
  3  4  1  0
  4  5  1  0
  5  6  1  0
  6  7  1  0
  7  8  1  0
  8  9  1  0
  9 10  1  0
 10 11  1  0
 11 12  1  0
 12 13  1  0
 13 14  1  0
 14 15  1  0
 15 16  1  0
 16 17  1  0
 17 18  1  0
 18 19  1  0
 19 20  1  0
 20 21  2  0
 20 22  1  0
 22 23  2  0
 23 24  1  0
 24 25  2  0
 25 26  1  0
 26 27  2  0
 27 28  1  0
 28 29  2  0
 29 30  1  0
 29 31  1  0
 31 32  2  0
 32 33  1  0
 32 34  1  0
 34 35  2  0
 35 36  1  0
 27 37  1  0
 37 38  2  0
 38 39  1  0
 39 40  2  0
 40 41  1  0
 41 42  1  0
 42 43  1  0
 42 44  1  0
 42 45  1  0
 45 46  2  0
 46 24  1  0
 45 26  1  0
 35 28  1  0
 41 37  1  0
  1 47  1  0
  1 48  1  0
  1 49  1  0
  2 50  1  0
  2 51  1  0
  3 52  1  0
  3 53  1  0
  4 54  1  0
  4 55  1  0
  5 56  1  0
  5 57  1  0
  6 58  1  0
  6 59  1  0
  7 60  1  0
  7 61  1  0
  8 62  1  0
  8 63  1  0
  9 64  1  0
  9 65  1  0
 10 66  1  0
 10 67  1  0
 11 68  1  0
 11 69  1  0
 12 70  1  0
 12 71  1  0
 13 72  1  0
 13 73  1  0
 14 74  1  0
 14 75  1  0
 15 76  1  0
 15 77  1  0
 16 78  1  0
 16 79  1  0
 17 80  1  0
 17 81  1  0
 18 82  1  0
 18 83  1  0
 22 84  1  0
 23 85  1  0
 25 86  1  0
 30 87  1  0
 30 88  1  0
 30 89  1  0
 31 90  1  0
 33 91  1  0
 33 92  1  0
 33 93  1  0
 34 94  1  0
 36 95  1  0
 36 96  1  0
 36 97  1  0
 38 98  1  0
 39 99  1  0
 40100  1  0
 46101  1  0
M  CHG  2  42  -1  45   1
M  END
