
     RDKit          3D

 93103  0  0  0  0  0  0  0  0999 V2000
   -6.2885   -6.0632   -3.2277 C   0  0  0  0  0  0  0  0  0  0  0  0
   -4.9032   -6.0385   -2.9765 O   0  0  0  0  0  0  0  0  0  0  0  0
   -4.3266   -4.9240   -2.3695 C   0  0  0  0  0  0  0  0  0  0  0  0
   -2.9747   -4.8990   -2.1238 C   0  0  0  0  0  0  0  0  0  0  0  0
   -2.3682   -3.8023   -1.5207 C   0  0  0  0  0  0  0  0  0  0  0  0
   -3.1450   -2.7315   -1.1651 C   0  0  0  0  0  0  0  0  0  0  0  0
   -4.5060   -2.7353   -1.4029 C   0  0  0  0  0  0  0  0  0  0  0  0
   -5.0916   -3.8428   -2.0104 C   0  0  0  0  0  0  0  0  0  0  0  0
   -5.3925   -1.6337   -0.9950 C   0  0  0  0  0  0  0  0  0  0  0  0
   -4.7547   -0.3105   -0.9574 C   0  0  0  0  0  0  0  0  0  0  0  0
   -3.3545   -0.3155   -0.4983 C   0  0  0  0  0  0  0  0  0  0  0  0
   -2.6483    0.6305    0.0788 C   0  0  0  0  0  0  0  0  0  0  0  0
   -3.1684    1.9489    0.3930 C   0  0  0  0  0  0  0  0  0  0  0  0
   -4.2017    2.0687    1.3020 C   0  0  0  0  0  0  0  0  0  0  0  0
   -4.7879    3.2752    1.5982 C   0  0  0  0  0  0  0  0  0  0  0  0
   -4.3423    4.4269    0.9741 C   0  0  0  0  0  0  0  0  0  0  0  0
   -3.3171    4.3363    0.0668 C   0  0  0  0  0  0  0  0  0  0  0  0
   -2.7475    3.1170   -0.2118 C   0  0  0  0  0  0  0  0  0  0  0  0
   -1.3259    0.0662    0.2849 C   0  0  0  0  0  0  0  0  0  0  0  0
   -0.2216    0.5994    0.7872 C   0  0  0  0  0  0  0  0  0  0  0  0
   -0.2567    1.9958    1.2699 C   0  0  0  0  0  0  0  0  0  0  0  0
   -0.9807    2.3389    2.4121 C   0  0  0  0  0  0  0  0  0  0  0  0
   -0.9938    3.6809    2.7876 C   0  0  0  0  0  0  0  0  0  0  0  0
   -0.3125    4.5981    2.0409 C   0  0  0  0  0  0  0  0  0  0  0  0
   -0.2973    5.9335    2.3756 C   0  0  0  0  0  0  0  0  0  0  0  0
    0.3920    6.8684    1.6233 C   0  0  0  0  0  0  0  0  0  0  0  0
    1.0754    6.4302    0.5125 C   0  0  0  0  0  0  0  0  0  0  0  0
    1.0801    5.1094    0.1527 C   0  0  0  0  0  0  0  0  0  0  0  0
    1.7878    4.7007   -0.9877 O   0  0  0  0  0  0  0  0  0  0  0  0
    0.3925    4.2078    0.9121 C   0  0  0  0  0  0  0  0  0  0  0  0
    0.3973    2.9108    0.5617 N   0  0  0  0  0  0  0  0  0  0  0  0
    1.1014   -0.0640    0.7325 C   0  0  0  0  0  0  0  0  0  0  0  0
    2.3372    0.4755    0.9740 C   0  0  0  0  0  0  0  0  0  0  0  0
    2.7777    1.7199    1.5652 C   0  0  0  0  0  0  0  0  0  0  0  0
    2.5431    2.0241    2.8893 C   0  0  0  0  0  0  0  0  0  0  0  0
    2.9953    3.1813    3.4919 C   0  0  0  0  0  0  0  0  0  0  0  0
    3.7150    4.0718    2.7303 C   0  0  0  0  0  0  0  0  0  0  0  0
    3.9660    3.7995    1.4100 C   0  0  0  0  0  0  0  0  0  0  0  0
    3.5137    2.6452    0.8120 C   0  0  0  0  0  0  0  0  0  0  0  0
    3.2631   -0.4498    0.5066 C   0  0  0  0  0  0  0  0  0  0  0  0
    2.5406   -1.5052    0.0084 C   0  0  0  0  0  0  0  0  0  0  0  0
    1.2020   -1.2973    0.1465 N   0  0  0  0  0  0  0  0  0  0  0  0
   -0.0757   -2.0765    0.0795 B   0  0  0  0  0  4  0  0  0  0  0  0
   -0.3208   -2.0783    1.7371 F   0  0  0  0  0  0  0  0  0  0  0  0
   -0.0492   -3.4807    0.0941 F   0  0  0  0  0  0  0  0  0  0  0  0
   -1.3101   -1.2958   -0.2032 N   0  0  0  0  0  4  0  0  0  0  0  0
   -2.5243   -1.4966   -0.6781 C   0  0  0  0  0  0  0  0  0  0  0  0
    3.2568   -2.6784   -0.5156 C   0  0  0  0  0  0  0  0  0  0  0  0
    2.5619   -3.6345   -1.2053 C   0  0  0  0  0  0  0  0  0  0  0  0
    3.2687   -4.6462   -1.8539 C   0  0  0  0  0  0  0  0  0  0  0  0
    4.6437   -4.6905   -1.8104 C   0  0  0  0  0  0  0  0  0  0  0  0
    5.3890   -5.6671   -2.4346 O   0  0  0  0  0  0  0  0  0  0  0  0
    6.7933   -5.6839   -2.3729 C   0  0  0  0  0  0  0  0  0  0  0  0
    5.3313   -3.7220   -1.1147 C   0  0  0  0  0  0  0  0  0  0  0  0
    4.6473   -2.7186   -0.4672 C   0  0  0  0  0  0  0  0  0  0  0  0
    5.4000   -1.7237    0.3397 C   0  0  0  0  0  0  0  0  0  0  0  0
    4.7295   -0.4089    0.4380 C   0  0  0  0  0  0  0  0  0  0  0  0
   -6.7916   -5.9675   -2.2250 H   0  0  0  0  0  0  0  0  0  0  0  0
   -6.5850   -7.0222   -3.6970 H   0  0  0  0  0  0  0  0  0  0  0  0
   -6.6202   -5.1824   -3.8196 H   0  0  0  0  0  0  0  0  0  0  0  0
   -2.3485   -5.7239   -2.3899 H   0  0  0  0  0  0  0  0  0  0  0  0
   -1.3311   -3.8031   -1.4208 H   0  0  0  0  0  0  0  0  0  0  0  0
   -6.1784   -3.8256   -2.1923 H   0  0  0  0  0  0  0  0  0  0  0  0
   -6.2217   -1.5822   -1.7668 H   0  0  0  0  0  0  0  0  0  0  0  0
   -5.9549   -1.8775   -0.0525 H   0  0  0  0  0  0  0  0  0  0  0  0
   -5.3388    0.3339   -0.2533 H   0  0  0  0  0  0  0  0  0  0  0  0
   -4.8374    0.2293   -1.9416 H   0  0  0  0  0  0  0  0  0  0  0  0
   -4.5586    1.1876    1.8042 H   0  0  0  0  0  0  0  0  0  0  0  0
   -5.5973    3.3409    2.3153 H   0  0  0  0  0  0  0  0  0  0  0  0
   -4.8115    5.3558    1.2181 H   0  0  0  0  0  0  0  0  0  0  0  0
   -2.9855    5.2630   -0.4108 H   0  0  0  0  0  0  0  0  0  0  0  0
   -1.9484    3.0398   -0.9245 H   0  0  0  0  0  0  0  0  0  0  0  0
   -1.4966    1.5937    2.9631 H   0  0  0  0  0  0  0  0  0  0  0  0
   -1.5433    3.9953    3.6697 H   0  0  0  0  0  0  0  0  0  0  0  0
   -0.8458    6.2662    3.2634 H   0  0  0  0  0  0  0  0  0  0  0  0
    0.3825    7.9157    1.9189 H   0  0  0  0  0  0  0  0  0  0  0  0
    1.6216    7.1489   -0.0897 H   0  0  0  0  0  0  0  0  0  0  0  0
    2.2993    5.3892   -1.5282 H   0  0  0  0  0  0  0  0  0  0  0  0
    1.9793    1.3285    3.4894 H   0  0  0  0  0  0  0  0  0  0  0  0
    2.8039    3.4051    4.5281 H   0  0  0  0  0  0  0  0  0  0  0  0
    4.0822    4.9856    3.1760 H   0  0  0  0  0  0  0  0  0  0  0  0
    4.5407    4.5169    0.8106 H   0  0  0  0  0  0  0  0  0  0  0  0
    3.6785    2.3765   -0.2185 H   0  0  0  0  0  0  0  0  0  0  0  0
    1.5208   -3.6016   -1.3165 H   0  0  0  0  0  0  0  0  0  0  0  0
    2.7703   -5.4372   -2.4175 H   0  0  0  0  0  0  0  0  0  0  0  0
    7.2020   -5.8649   -1.3690 H   0  0  0  0  0  0  0  0  0  0  0  0
    7.1647   -6.5077   -3.0343 H   0  0  0  0  0  0  0  0  0  0  0  0
    7.1668   -4.6741   -2.7196 H   0  0  0  0  0  0  0  0  0  0  0  0
    6.4207   -3.7053   -1.0460 H   0  0  0  0  0  0  0  0  0  0  0  0
    6.3789   -1.5812   -0.2178 H   0  0  0  0  0  0  0  0  0  0  0  0
    5.6737   -2.1572    1.3361 H   0  0  0  0  0  0  0  0  0  0  0  0
    5.0383    0.1761   -0.4894 H   0  0  0  0  0  0  0  0  0  0  0  0
    5.1555    0.1192    1.3282 H   0  0  0  0  0  0  0  0  0  0  0  0
  1  2  1  0
  2  3  1  0
  3  4  2  0
  4  5  1  0
  5  6  2  0
  6  7  1  0
  7  8  2  0
  7  9  1  0
  9 10  1  0
 10 11  1  0
 11 12  2  0
 12 13  1  0
 13 14  2  0
 14 15  1  0
 15 16  2  0
 16 17  1  0
 17 18  2  0
 12 19  1  0
 19 20  2  0
 20 21  1  0
 21 22  2  0
 22 23  1  0
 23 24  2  0
 24 25  1  0
 25 26  2  0
 26 27  1  0
 27 28  2  0
 28 29  1  0
 28 30  1  0
 30 31  2  0
 20 32  1  0
 32 33  2  0
 33 34  1  0
 34 35  2  0
 35 36  1  0
 36 37  2  0
 37 38  1  0
 38 39  2  0
 33 40  1  0
 40 41  2  0
 41 42  1  0
 42 43  1  0
 43 44  1  0
 43 45  1  0
 43 46  1  0
 46 47  2  0
 41 48  1  0
 48 49  2  0
 49 50  1  0
 50 51  2  0
 51 52  1  0
 52 53  1  0
 51 54  1  0
 54 55  2  0
 55 56  1  0
 56 57  1  0
  8  3  1  0
 47 11  1  0
 55 48  1  0
 47  6  1  0
 18 13  1  0
 46 19  1  0
 31 21  1  0
 42 32  1  0
 30 24  1  0
 39 34  1  0
 57 40  1  0
  1 58  1  0
  1 59  1  0
  1 60  1  0
  4 61  1  0
  5 62  1  0
  8 63  1  0
  9 64  1  0
  9 65  1  0
 10 66  1  0
 10 67  1  0
 14 68  1  0
 15 69  1  0
 16 70  1  0
 17 71  1  0
 18 72  1  0
 22 73  1  0
 23 74  1  0
 25 75  1  0
 26 76  1  0
 27 77  1  0
 29 78  1  0
 35 79  1  0
 36 80  1  0
 37 81  1  0
 38 82  1  0
 39 83  1  0
 49 84  1  0
 50 85  1  0
 53 86  1  0
 53 87  1  0
 53 88  1  0
 54 89  1  0
 56 90  1  0
 56 91  1  0
 57 92  1  0
 57 93  1  0
M  CHG  2  43  -1  46   1
M  END
