
     RDKit          3D

 48 51  0  0  0  0  0  0  0  0999 V2000
    1.7528   -0.2627    4.9956 N   0  0  0  0  0  0  0  0  0  0  0  0
    1.1335   -0.3098    3.8861 C   0  0  0  0  0  0  0  0  0  0  0  0
    0.4692   -0.3581    2.6759 C   0  0  0  0  0  0  0  0  0  0  0  0
    0.3525   -1.6006    1.8792 N   0  0  0  0  0  0  0  0  0  0  0  0
    1.2592   -2.0049    1.1075 C   0  0  0  0  0  0  0  0  0  0  0  0
    2.1884   -2.5211    0.2483 C   0  0  0  0  0  0  0  0  0  0  0  0
    1.8429   -3.7626   -0.4310 C   0  0  0  0  0  0  0  0  0  0  0  0
    0.5855   -4.2767   -0.1927 O   0  0  0  0  0  0  0  0  0  0  0  0
    2.7552   -4.3336   -1.2373 C   0  0  0  0  0  0  0  0  0  0  0  0
    3.9868   -3.8242   -1.4671 C   0  0  0  0  0  0  0  0  0  0  0  0
    4.3772   -2.6359   -0.8475 C   0  0  0  0  0  0  0  0  0  0  0  0
    5.6316   -2.1901   -1.1385 C   0  0  0  0  0  0  0  0  0  0  0  0
    6.0370   -0.9600   -0.5042 C   0  0  0  0  0  0  0  0  0  0  0  0
    5.1651   -0.3673    0.3061 C   0  0  0  0  0  0  0  0  0  0  0  0
    3.9096   -0.8230    0.5937 C   0  0  0  0  0  0  0  0  0  0  0  0
    3.4561   -2.0462   -0.0212 C   0  0  0  0  0  0  0  0  0  0  0  0
   -0.0341    0.7122    2.1186 C   0  0  0  0  0  0  0  0  0  0  0  0
    0.1091    2.0145    2.8167 C   0  0  0  0  0  0  0  0  0  0  0  0
    0.2403    3.0669    3.3804 N   0  0  0  0  0  0  0  0  0  0  0  0
   -0.7083    0.7618    0.9434 N   0  0  0  0  0  0  0  0  0  0  0  0
   -1.7929    1.2806    0.5550 C   0  0  0  0  0  0  0  0  0  0  0  0
   -3.0098    1.8756    0.1668 C   0  0  0  0  0  0  0  0  0  0  0  0
   -3.8210    2.5521    1.1540 C   0  0  0  0  0  0  0  0  0  0  0  0
   -3.6092    2.6982    2.4415 O   0  0  0  0  0  0  0  0  0  0  0  0
   -4.9975    3.1381    0.5956 C   0  0  0  0  0  0  0  0  0  0  0  0
   -5.3233    3.0818   -0.6468 C   0  0  0  0  0  0  0  0  0  0  0  0
   -4.5397    2.4147   -1.6129 C   0  0  0  0  0  0  0  0  0  0  0  0
   -4.8894    2.4294   -2.9529 C   0  0  0  0  0  0  0  0  0  0  0  0
   -3.9701    1.7966   -3.7788 C   0  0  0  0  0  0  0  0  0  0  0  0
   -2.8630    1.2370   -3.4141 C   0  0  0  0  0  0  0  0  0  0  0  0
   -2.4997    1.2187   -2.0024 C   0  0  0  0  0  0  0  0  0  0  0  0
   -3.3970    1.8397   -1.1318 C   0  0  0  0  0  0  0  0  0  0  0  0
    1.7122   -0.7155    1.0410 H   0  0  0  0  0  0  0  0  0  0  0  0
   -0.0574   -3.8159    0.4360 H   0  0  0  0  0  0  0  0  0  0  0  0
    2.5223   -5.2850   -1.7703 H   0  0  0  0  0  0  0  0  0  0  0  0
    4.7061   -4.2868   -2.1235 H   0  0  0  0  0  0  0  0  0  0  0  0
    6.3176   -2.6598   -1.7710 H   0  0  0  0  0  0  0  0  0  0  0  0
    7.0060   -0.6030   -0.7266 H   0  0  0  0  0  0  0  0  0  0  0  0
    5.4469    0.6087    0.8104 H   0  0  0  0  0  0  0  0  0  0  0  0
    3.2996   -0.3047    1.2527 H   0  0  0  0  0  0  0  0  0  0  0  0
   -2.0477    1.3977    1.9071 H   0  0  0  0  0  0  0  0  0  0  0  0
   -2.9421    2.4465    3.0814 H   0  0  0  0  0  0  0  0  0  0  0  0
   -5.6111    3.6264    1.3503 H   0  0  0  0  0  0  0  0  0  0  0  0
   -6.2374    3.5368   -1.0650 H   0  0  0  0  0  0  0  0  0  0  0  0
   -5.8034    2.8889   -3.2410 H   0  0  0  0  0  0  0  0  0  0  0  0
   -4.3221    1.8132   -4.8558 H   0  0  0  0  0  0  0  0  0  0  0  0
   -2.1637    0.7404   -4.0342 H   0  0  0  0  0  0  0  0  0  0  0  0
   -1.6227    0.7709   -1.7079 H   0  0  0  0  0  0  0  0  0  0  0  0
  1  2  3  0
  2  3  1  0
  3  4  1  0
  4  5  2  0
  5  6  1  0
  6  7  2  0
  7  8  1  0
  7  9  1  0
  9 10  2  0
 10 11  1  0
 11 12  2  0
 12 13  1  0
 13 14  2  0
 14 15  1  0
 15 16  2  0
  3 17  2  0
 17 18  1  0
 18 19  3  0
 17 20  1  0
 20 21  2  0
 21 22  1  0
 22 23  2  0
 23 24  1  0
 23 25  1  0
 25 26  2  0
 26 27  1  0
 27 28  2  0
 28 29  1  0
 29 30  2  0
 30 31  1  0
 31 32  2  0
 16  6  1  0
 32 22  1  0
 16 11  1  0
 32 27  1  0
  5 33  1  0
  8 34  1  0
  9 35  1  0
 10 36  1  0
 12 37  1  0
 13 38  1  0
 14 39  1  0
 15 40  1  0
 21 41  1  0
 24 42  1  0
 25 43  1  0
 26 44  1  0
 28 45  1  0
 29 46  1  0
 30 47  1  0
 31 48  1  0
M  END
