
     RDKit          3D

 66 71  0  0  0  0  0  0  0  0999 V2000
   -1.4250    7.3615    0.2144 C   0  0  0  0  0  0  0  0  0  0  0  0
   -2.2861    6.2621    0.4891 O   0  0  0  0  0  0  0  0  0  0  0  0
   -1.7121    4.9655    0.1765 C   0  0  0  0  0  0  0  0  0  0  0  0
   -0.5727    4.9622   -0.2636 O   0  0  0  0  0  0  0  0  0  0  0  0
   -2.5146    3.7920    0.3781 C   0  0  0  0  0  0  0  0  0  0  0  0
   -3.9937    3.9550    0.5560 C   0  0  0  0  0  0  0  0  0  0  0  0
   -5.1948    4.0681    0.6909 N   0  0  0  0  0  0  0  0  0  0  0  0
   -2.1419    2.5449    0.1509 C   0  0  0  0  0  0  0  0  0  0  0  0
   -0.5240    2.2663   -0.4989 S   0  0  0  0  0  0  0  0  0  0  0  0
   -0.5877    0.6186   -0.6394 C   0  0  0  0  0  0  0  0  0  0  0  0
    0.4278   -0.2081   -0.8957 C   0  0  0  0  0  0  0  0  0  0  0  0
    0.3309   -1.9333   -1.0147 S   0  0  0  0  0  0  0  0  0  0  0  0
    2.0318   -2.3029   -0.9752 C   0  0  0  0  0  0  0  0  0  0  0  0
    2.5457   -3.5064   -1.0731 C   0  0  0  0  0  0  0  0  0  0  0  0
    4.0493   -3.5847   -0.9972 C   0  0  0  0  0  0  0  0  0  0  0  0
    5.1802   -3.6594   -0.9373 N   0  0  0  0  0  0  0  0  0  0  0  0
    1.8347   -4.7269   -1.1847 C   0  0  0  0  0  0  0  0  0  0  0  0
    2.5708   -5.8387   -1.3322 O   0  0  0  0  0  0  0  0  0  0  0  0
    0.5151   -4.9551   -1.1681 O   0  0  0  0  0  0  0  0  0  0  0  0
   -0.0833   -6.2692   -1.3017 C   0  0  0  0  0  0  0  0  0  0  0  0
    2.6376   -1.0045   -0.8750 C   0  0  0  0  0  0  0  0  0  0  0  0
    3.9282   -0.5508   -0.7317 C   0  0  0  0  0  0  0  0  0  0  0  0
    4.2658    0.6545   -0.5827 C   0  0  0  0  0  0  0  0  0  0  0  0
    5.5906    1.3340   -0.2746 C   0  0  0  0  0  0  0  0  0  0  0  0
    5.8699    1.3710    1.1325 C   0  0  0  0  0  0  0  0  0  0  0  0
    7.1337    1.9936    1.3446 C   0  0  0  0  0  0  0  0  0  0  0  0
    7.9273    2.4718    0.4136 C   0  0  0  0  0  0  0  0  0  0  0  0
    9.2649    3.1312    0.6465 C   0  0  0  0  0  0  0  0  0  0  0  0
    9.5234    3.1208    2.0011 F   0  0  0  0  0  0  0  0  0  0  0  0
    9.3054    4.3459    0.0667 F   0  0  0  0  0  0  0  0  0  0  0  0
   10.1998    2.2383    0.0653 F   0  0  0  0  0  0  0  0  0  0  0  0
    7.6361    2.4325   -1.0146 C   0  0  0  0  0  0  0  0  0  0  0  0
    6.3817    1.8027   -1.1365 C   0  0  0  0  0  0  0  0  0  0  0  0
    2.7228    1.4727   -0.6246 S   0  0  0  0  0  0  0  0  0  0  0  0
    1.7460   -0.0225   -0.8463 C   0  0  0  0  0  0  0  0  0  0  0  0
   -1.8588    0.2711   -0.1881 C   0  0  0  0  0  0  0  0  0  0  0  0
   -2.7875   -1.1731   -0.1016 S   0  0  0  0  0  0  0  0  0  0  0  0
   -4.4215   -0.3106    0.5675 C   0  0  0  0  0  0  0  0  0  0  0  0
   -5.4007   -1.3736    0.7943 C   0  0  0  0  0  0  0  0  0  0  0  0
   -5.3270   -2.6027    0.5638 C   0  0  0  0  0  0  0  0  0  0  0  0
   -6.2191   -3.6883    0.5825 C   0  0  0  0  0  0  0  0  0  0  0  0
   -7.5387   -3.1480    0.9881 C   0  0  0  0  0  0  0  0  0  0  0  0
   -8.6163   -4.1486    0.9392 C   0  0  0  0  0  0  0  0  0  0  0  0
   -9.8209   -3.5265    1.1181 F   0  0  0  0  0  0  0  0  0  0  0  0
   -8.6186   -4.6928   -0.3572 F   0  0  0  0  0  0  0  0  0  0  0  0
   -8.4543   -5.1767    1.8576 F   0  0  0  0  0  0  0  0  0  0  0  0
   -7.6517   -1.9133    1.2484 C   0  0  0  0  0  0  0  0  0  0  0  0
   -6.7451   -0.8703    1.2188 C   0  0  0  0  0  0  0  0  0  0  0  0
   -3.8254    0.6666    0.5126 C   0  0  0  0  0  0  0  0  0  0  0  0
   -2.6633    1.3183    0.2194 C   0  0  0  0  0  0  0  0  0  0  0  0
   -1.9830    8.2317   -0.2332 H   0  0  0  0  0  0  0  0  0  0  0  0
   -0.7446    7.6732    0.9776 H   0  0  0  0  0  0  0  0  0  0  0  0
   -0.7426    7.0403   -0.6658 H   0  0  0  0  0  0  0  0  0  0  0  0
   -0.3129   -6.3827   -2.3918 H   0  0  0  0  0  0  0  0  0  0  0  0
    0.7553   -7.0262   -1.0906 H   0  0  0  0  0  0  0  0  0  0  0  0
   -0.9482   -6.4474   -0.6657 H   0  0  0  0  0  0  0  0  0  0  0  0
    4.8243   -1.3249   -0.7601 H   0  0  0  0  0  0  0  0  0  0  0  0
    5.2337    1.0100    1.8297 H   0  0  0  0  0  0  0  0  0  0  0  0
    7.4542    2.0821    2.4252 H   0  0  0  0  0  0  0  0  0  0  0  0
    8.2002    2.8184   -1.7438 H   0  0  0  0  0  0  0  0  0  0  0  0
    6.1461    1.7074   -2.2912 H   0  0  0  0  0  0  0  0  0  0  0  0
   -4.2965   -3.0814    0.2564 H   0  0  0  0  0  0  0  0  0  0  0  0
   -6.1177   -4.6814    0.4011 H   0  0  0  0  0  0  0  0  0  0  0  0
   -8.6894   -1.5398    1.6077 H   0  0  0  0  0  0  0  0  0  0  0  0
   -6.7783    0.1121    1.4110 H   0  0  0  0  0  0  0  0  0  0  0  0
   -4.6354    1.5740    1.0115 H   0  0  0  0  0  0  0  0  0  0  0  0
  1  2  1  0
  2  3  1  0
  3  4  2  0
  3  5  1  0
  5  6  1  0
  6  7  3  0
  5  8  2  0
  8  9  1  0
  9 10  1  0
 10 11  2  0
 11 12  1  0
 12 13  1  0
 13 14  2  0
 14 15  1  0
 15 16  3  0
 14 17  1  0
 17 18  2  0
 17 19  1  0
 19 20  1  0
 13 21  1  0
 21 22  1  0
 22 23  2  0
 23 24  1  0
 24 25  2  0
 25 26  1  0
 26 27  2  0
 27 28  1  0
 28 29  1  0
 28 30  1  0
 28 31  1  0
 27 32  1  0
 32 33  2  0
 23 34  1  0
 34 35  1  0
 10 36  1  0
 36 37  1  0
 37 38  1  0
 38 39  1  0
 39 40  2  0
 40 41  1  0
 41 42  2  0
 42 43  1  0
 43 44  1  0
 43 45  1  0
 43 46  1  0
 42 47  1  0
 47 48  2  0
 38 49  2  0
 49 50  1  0
 50  8  1  0
 35 11  1  0
 50 36  2  0
 35 21  2  0
 48 39  1  0
 33 24  1  0
  1 51  1  0
  1 52  1  0
  1 53  1  0
 20 54  1  0
 20 55  1  0
 20 56  1  0
 22 57  1  0
 25 58  1  0
 26 59  1  0
 32 60  1  0
 33 61  1  0
 40 62  1  0
 41 63  1  0
 47 64  1  0
 48 65  1  0
 49 66  1  0
M  END
