
     RDKit          3D

 36 39  0  0  0  0  0  0  0  0999 V2000
    0.1961   -2.6686   -2.2872 C   0  0  0  0  0  0  0  0  0  0  0  0
   -0.0559   -1.5813   -1.3294 N   0  0  0  0  0  0  0  0  0  0  0  0
   -1.2873   -1.3107   -0.9668 N   0  0  0  0  0  0  0  0  0  0  0  0
   -1.6189   -0.3385   -0.0989 C   0  0  0  0  0  0  0  0  0  0  0  0
   -2.9939   -0.0535    0.2912 C   0  0  0  0  0  0  0  0  0  0  0  0
   -3.2983    0.1555    1.6321 C   0  0  0  0  0  0  0  0  0  0  0  0
   -4.5815    0.4282    2.0537 C   0  0  0  0  0  0  0  0  0  0  0  0
   -5.5990    0.4985    1.1347 C   0  0  0  0  0  0  0  0  0  0  0  0
   -5.3387    0.2976   -0.2022 C   0  0  0  0  0  0  0  0  0  0  0  0
   -4.0447    0.0273   -0.5878 C   0  0  0  0  0  0  0  0  0  0  0  0
   -0.5482    0.3964    0.4166 C   0  0  0  0  0  0  0  0  0  0  0  0
   -0.4744    1.4225    1.2876 N   0  0  0  0  0  0  0  0  0  0  0  0
    0.7906    1.7783    1.4578 N   0  0  0  0  0  0  0  0  0  0  0  0
    1.5641    1.0001    0.7092 N   0  0  0  0  0  0  0  0  0  0  0  0
    0.7579    0.1427    0.0606 C   0  0  0  0  0  0  0  0  0  0  0  0
    0.9838   -0.8769   -0.8366 C   0  0  0  0  0  0  0  0  0  0  0  0
    2.1878   -1.1421   -1.1916 N   0  0  0  0  0  0  0  0  0  0  0  0
    3.2433   -0.3642   -0.6376 C   0  0  0  0  0  0  0  0  0  0  0  0
    3.7998    0.7115   -1.2986 C   0  0  0  0  0  0  0  0  0  0  0  0
    4.8107    1.3847   -0.6654 C   0  0  0  0  0  0  0  0  0  0  0  0
    5.2734    1.0152    0.5947 C   0  0  0  0  0  0  0  0  0  0  0  0
    4.6894   -0.0657    1.2197 C   0  0  0  0  0  0  0  0  0  0  0  0
    3.7042   -0.7173    0.5960 N   0  0  0  0  0  0  0  0  0  0  0  0
   -0.1591   -3.6418   -1.8937 H   0  0  0  0  0  0  0  0  0  0  0  0
   -0.3640   -2.3996   -3.2075 H   0  0  0  0  0  0  0  0  0  0  0  0
    1.2563   -2.6825   -2.5410 H   0  0  0  0  0  0  0  0  0  0  0  0
   -2.5094    0.1021    2.3535 H   0  0  0  0  0  0  0  0  0  0  0  0
   -4.7903    0.5890    3.1231 H   0  0  0  0  0  0  0  0  0  0  0  0
   -6.6075    0.7157    1.4917 H   0  0  0  0  0  0  0  0  0  0  0  0
   -6.1395    0.3553   -0.9048 H   0  0  0  0  0  0  0  0  0  0  0  0
   -3.7907   -0.1399   -1.6443 H   0  0  0  0  0  0  0  0  0  0  0  0
    1.1552    2.5398    2.0712 H   0  0  0  0  0  0  0  0  0  0  0  0
    3.3981    0.9482   -2.2721 H   0  0  0  0  0  0  0  0  0  0  0  0
    5.2520    2.2403   -1.1932 H   0  0  0  0  0  0  0  0  0  0  0  0
    6.0731    1.5675    1.0675 H   0  0  0  0  0  0  0  0  0  0  0  0
    5.0657   -0.3337    2.1979 H   0  0  0  0  0  0  0  0  0  0  0  0
  1  2  1  0
  2  3  1  0
  3  4  2  0
  4  5  1  0
  5  6  2  0
  6  7  1  0
  7  8  2  0
  8  9  1  0
  9 10  2  0
  4 11  1  0
 11 12  2  0
 12 13  1  0
 13 14  1  0
 14 15  2  0
 15 16  1  0
 16 17  2  0
 17 18  1  0
 18 19  2  0
 19 20  1  0
 20 21  2  0
 21 22  1  0
 22 23  2  0
 16  2  1  0
 23 18  1  0
 10  5  1  0
 15 11  1  0
  1 24  1  0
  1 25  1  0
  1 26  1  0
  6 27  1  0
  7 28  1  0
  8 29  1  0
  9 30  1  0
 10 31  1  0
 13 32  1  0
 19 33  1  0
 20 34  1  0
 21 35  1  0
 22 36  1  0
M  END
