
     RDKit          3D

 36 37  0  0  0  0  0  0  0  0999 V2000
    5.5573    1.3206    0.9388 C   0  0  0  0  0  0  0  0  0  0  0  0
    4.7928    0.6233   -0.0455 N   0  0  0  0  0  0  0  0  0  0  0  0
    5.4625    0.0647   -1.1975 C   0  0  0  0  0  0  0  0  0  0  0  0
    3.3712    0.4502    0.0597 C   0  0  0  0  0  0  0  0  0  0  0  0
    2.6514    0.9380    1.1026 C   0  0  0  0  0  0  0  0  0  0  0  0
    1.2558    0.7516    1.1777 C   0  0  0  0  0  0  0  0  0  0  0  0
    0.5745    0.0832    0.2214 C   0  0  0  0  0  0  0  0  0  0  0  0
   -0.8563   -0.1471    0.2297 C   0  0  0  0  0  0  0  0  0  0  0  0
   -1.6230    0.2846    1.1845 C   0  0  0  0  0  0  0  0  0  0  0  0
   -3.0259    0.2008    1.4251 C   0  0  0  0  0  0  0  0  0  0  0  0
   -3.3888    0.7127    2.5753 O   0  0  0  0  0  0  0  0  0  0  0  0
   -4.0524   -0.3517    0.6085 C   0  0  0  0  0  0  0  0  0  0  0  0
   -5.3050   -0.6482    1.2116 C   0  0  0  0  0  0  0  0  0  0  0  0
   -6.3783   -1.1118    0.4973 C   0  0  0  0  0  0  0  0  0  0  0  0
   -6.2282   -1.2954   -0.8620 C   0  0  0  0  0  0  0  0  0  0  0  0
   -5.0259   -1.0155   -1.4736 C   0  0  0  0  0  0  0  0  0  0  0  0
   -3.9313   -0.5398   -0.7349 C   0  0  0  0  0  0  0  0  0  0  0  0
    1.3249   -0.4192   -0.8553 C   0  0  0  0  0  0  0  0  0  0  0  0
    2.6862   -0.2334   -0.9216 C   0  0  0  0  0  0  0  0  0  0  0  0
    6.6123    0.9795    0.9793 H   0  0  0  0  0  0  0  0  0  0  0  0
    5.5492    2.4083    0.7803 H   0  0  0  0  0  0  0  0  0  0  0  0
    5.1337    1.0615    1.9497 H   0  0  0  0  0  0  0  0  0  0  0  0
    5.0636    0.4453   -2.1560 H   0  0  0  0  0  0  0  0  0  0  0  0
    5.3687   -1.0493   -1.2167 H   0  0  0  0  0  0  0  0  0  0  0  0
    6.5387    0.2813   -1.1791 H   0  0  0  0  0  0  0  0  0  0  0  0
    3.1388    1.4802    1.8969 H   0  0  0  0  0  0  0  0  0  0  0  0
    0.7634    1.1683    2.0339 H   0  0  0  0  0  0  0  0  0  0  0  0
   -1.2725   -0.7388   -0.5798 H   0  0  0  0  0  0  0  0  0  0  0  0
   -1.0307    0.8469    1.9879 H   0  0  0  0  0  0  0  0  0  0  0  0
   -5.3551   -0.4842    2.2890 H   0  0  0  0  0  0  0  0  0  0  0  0
   -7.3118   -1.3249    0.9918 H   0  0  0  0  0  0  0  0  0  0  0  0
   -7.0909   -1.6632   -1.4027 H   0  0  0  0  0  0  0  0  0  0  0  0
   -4.8991   -1.1561   -2.5356 H   0  0  0  0  0  0  0  0  0  0  0  0
   -3.0702   -0.3157   -1.3133 H   0  0  0  0  0  0  0  0  0  0  0  0
    0.8044   -0.9556   -1.6305 H   0  0  0  0  0  0  0  0  0  0  0  0
    3.1960   -0.6510   -1.7844 H   0  0  0  0  0  0  0  0  0  0  0  0
  1  2  1  0
  2  3  1  0
  2  4  1  0
  4  5  2  0
  5  6  1  0
  6  7  2  0
  7  8  1  0
  8  9  2  3
  9 10  1  0
 10 11  2  0
 10 12  1  0
 12 13  2  0
 13 14  1  0
 14 15  2  0
 15 16  1  0
 16 17  2  0
  7 18  1  0
 18 19  2  0
 19  4  1  0
 17 12  1  0
  1 20  1  0
  1 21  1  0
  1 22  1  0
  3 23  1  0
  3 24  1  0
  3 25  1  0
  5 26  1  0
  6 27  1  0
  8 28  1  0
  9 29  1  0
 13 30  1  0
 14 31  1  0
 15 32  1  0
 16 33  1  0
 17 34  1  0
 18 35  1  0
 19 36  1  0
M  END
