
     RDKit          3D

 27 29  0  0  0  0  0  0  0  0999 V2000
   -3.0442   -1.6498    0.3140 C   0  0  0  0  0  0  0  0  0  0  0  0
   -2.5846   -0.2856   -0.0548 C   0  0  0  0  0  0  0  0  0  0  0  0
   -3.5018    0.7219   -0.2736 C   0  0  0  0  0  0  0  0  0  0  0  0
   -3.0639    1.9754   -0.6132 C   0  0  0  0  0  0  0  0  0  0  0  0
   -3.9296    2.8618   -0.8032 O   0  0  0  0  0  0  0  0  0  0  0  0
   -1.7769    2.1871   -0.7223 O   0  0  0  0  0  0  0  0  0  0  0  0
   -0.8693    1.2691   -0.5260 C   0  0  0  0  0  0  0  0  0  0  0  0
    0.4626    1.6071   -0.6694 C   0  0  0  0  0  0  0  0  0  0  0  0
    1.4305    0.6190   -0.4577 C   0  0  0  0  0  0  0  0  0  0  0  0
    2.7431    1.0133   -0.6146 C   0  0  0  0  0  0  0  0  0  0  0  0
    3.7191    0.0510   -0.4099 C   0  0  0  0  0  0  0  0  0  0  0  0
    5.0587    0.4173   -0.5608 O   0  0  0  0  0  0  0  0  0  0  0  0
    3.3857   -1.2505   -0.0625 C   0  0  0  0  0  0  0  0  0  0  0  0
    2.0673   -1.6270    0.0902 C   0  0  0  0  0  0  0  0  0  0  0  0
    1.0738   -0.6757   -0.1110 C   0  0  0  0  0  0  0  0  0  0  0  0
   -0.2684   -1.0099    0.0318 C   0  0  0  0  0  0  0  0  0  0  0  0
   -1.2169   -0.0380   -0.1765 C   0  0  0  0  0  0  0  0  0  0  0  0
   -4.1352   -1.6155    0.5268 H   0  0  0  0  0  0  0  0  0  0  0  0
   -2.9340   -2.3489   -0.5641 H   0  0  0  0  0  0  0  0  0  0  0  0
   -2.5576   -2.0352    1.2215 H   0  0  0  0  0  0  0  0  0  0  0  0
   -4.5519    0.4535   -0.1601 H   0  0  0  0  0  0  0  0  0  0  0  0
    0.7714    2.6186   -0.9415 H   0  0  0  0  0  0  0  0  0  0  0  0
    3.0328    2.0274   -0.8866 H   0  0  0  0  0  0  0  0  0  0  0  0
    5.3076    1.3631   -0.8136 H   0  0  0  0  0  0  0  0  0  0  0  0
    4.1506   -1.9983    0.0963 H   0  0  0  0  0  0  0  0  0  0  0  0
    1.7978   -2.6449    0.3622 H   0  0  0  0  0  0  0  0  0  0  0  0
   -0.5668   -2.0062    0.2996 H   0  0  0  0  0  0  0  0  0  0  0  0
  1  2  1  0
  2  3  2  0
  3  4  1  0
  4  5  2  0
  4  6  1  0
  6  7  1  0
  7  8  2  0
  8  9  1  0
  9 10  2  0
 10 11  1  0
 11 12  1  0
 11 13  2  0
 13 14  1  0
 14 15  2  0
 15 16  1  0
 16 17  2  0
 17  2  1  0
 17  7  1  0
 15  9  1  0
  1 18  1  0
  1 19  1  0
  1 20  1  0
  3 21  1  0
  8 22  1  0
 10 23  1  0
 12 24  1  0
 13 25  1  0
 14 26  1  0
 16 27  1  0
M  END
