
     RDKit          3D

 32 33  0  0  0  0  0  0  0  0999 V2000
    7.3443   -1.0297    2.0154 C   0  0  0  0  0  0  0  0  0  0  0  0
    6.0791   -1.0755    1.8428 C   0  0  0  0  0  0  0  0  0  0  0  0
    4.6831   -1.1246    1.6299 C   0  0  0  0  0  0  0  0  0  0  0  0
    3.9442   -2.3179    1.5353 C   0  0  0  0  0  0  0  0  0  0  0  0
    2.6073   -2.2263    1.2177 C   0  0  0  0  0  0  0  0  0  0  0  0
    1.9877   -1.0599    0.9961 C   0  0  0  0  0  0  0  0  0  0  0  0
    0.6379   -0.9245    0.6582 C   0  0  0  0  0  0  0  0  0  0  0  0
    0.0526    0.2599    0.4339 C   0  0  0  0  0  0  0  0  0  0  0  0
   -1.3052    0.5003    0.0356 C   0  0  0  0  0  0  0  0  0  0  0  0
   -2.2090   -0.4335   -0.2185 C   0  0  0  0  0  0  0  0  0  0  0  0
   -3.5373    0.0207   -0.5969 C   0  0  0  0  0  0  0  0  0  0  0  0
   -4.5041   -0.7732   -0.8350 O   0  0  0  0  0  0  0  0  0  0  0  0
   -3.8354    1.3684   -0.7409 O   0  0  0  0  0  0  0  0  0  0  0  0
   -5.0793    1.8232   -1.1398 C   0  0  0  0  0  0  0  0  0  0  0  0
   -5.4127    1.3951   -2.5694 C   0  0  0  0  0  0  0  0  0  0  0  0
    0.8967    1.3934    0.5654 C   0  0  0  0  0  0  0  0  0  0  0  0
    0.3681    2.5121    0.3654 O   0  0  0  0  0  0  0  0  0  0  0  0
    2.1222    1.2699    0.8718 O   0  0  0  0  0  0  0  0  0  0  0  0
    2.7020    0.1456    1.0861 C   0  0  0  0  0  0  0  0  0  0  0  0
    4.0458    0.0880    1.4042 C   0  0  0  0  0  0  0  0  0  0  0  0
    8.4202   -0.9797    2.1591 H   0  0  0  0  0  0  0  0  0  0  0  0
    4.4470   -3.2347    1.6969 H   0  0  0  0  0  0  0  0  0  0  0  0
    2.0344   -3.1661    1.1479 H   0  0  0  0  0  0  0  0  0  0  0  0
    0.0323   -1.8439    0.5821 H   0  0  0  0  0  0  0  0  0  0  0  0
   -1.6353    1.5654   -0.0934 H   0  0  0  0  0  0  0  0  0  0  0  0
   -1.9539   -1.4557   -0.1648 H   0  0  0  0  0  0  0  0  0  0  0  0
   -5.1086    2.9291   -1.1041 H   0  0  0  0  0  0  0  0  0  0  0  0
   -5.9005    1.4713   -0.4460 H   0  0  0  0  0  0  0  0  0  0  0  0
   -6.4397    1.7447   -2.8308 H   0  0  0  0  0  0  0  0  0  0  0  0
   -5.4333    0.2822   -2.6778 H   0  0  0  0  0  0  0  0  0  0  0  0
   -4.6227    1.8236   -3.2173 H   0  0  0  0  0  0  0  0  0  0  0  0
    4.5725    1.0521    1.4614 H   0  0  0  0  0  0  0  0  0  0  0  0
  1  2  3  0
  2  3  1  0
  3  4  2  0
  4  5  1  0
  5  6  2  0
  6  7  1  0
  7  8  2  0
  8  9  1  0
  9 10  2  0
 10 11  1  0
 11 12  2  0
 11 13  1  0
 13 14  1  0
 14 15  1  0
  8 16  1  0
 16 17  2  0
 16 18  1  0
 18 19  1  0
 19 20  2  0
 20  3  1  0
 19  6  1  0
  1 21  1  0
  4 22  1  0
  5 23  1  0
  7 24  1  0
  9 25  1  0
 10 26  1  0
 14 27  1  0
 14 28  1  0
 15 29  1  0
 15 30  1  0
 15 31  1  0
 20 32  1  0
M  END
