
     RDKit          3D

 35 36  0  0  0  0  0  0  0  0999 V2000
   -7.1051   -0.1653   -0.1590 C   0  0  0  0  0  0  0  0  0  0  0  0
   -5.8381   -0.6369   -0.5742 O   0  0  0  0  0  0  0  0  0  0  0  0
   -4.6669   -0.0535   -0.0965 C   0  0  0  0  0  0  0  0  0  0  0  0
   -4.7172    0.9972    0.7923 C   0  0  0  0  0  0  0  0  0  0  0  0
   -3.5447    1.5579    1.2507 C   0  0  0  0  0  0  0  0  0  0  0  0
   -2.2903    1.1023    0.8492 C   0  0  0  0  0  0  0  0  0  0  0  0
   -2.2287    0.0519   -0.0394 C   0  0  0  0  0  0  0  0  0  0  0  0
   -1.0073   -0.5351   -0.5516 C   0  0  0  0  0  0  0  0  0  0  0  0
    0.2249   -0.1205   -0.2174 C   0  0  0  0  0  0  0  0  0  0  0  0
    1.4036   -0.7608   -0.7740 C   0  0  0  0  0  0  0  0  0  0  0  0
    1.2160   -1.7271   -1.5883 O   0  0  0  0  0  0  0  0  0  0  0  0
    2.7715   -0.3948   -0.4828 C   0  0  0  0  0  0  0  0  0  0  0  0
    3.8349   -1.0841   -1.0794 C   0  0  0  0  0  0  0  0  0  0  0  0
    3.4881   -2.1119   -1.9435 O   0  0  0  0  0  0  0  0  0  0  0  0
    5.1236   -0.7435   -0.8084 C   0  0  0  0  0  0  0  0  0  0  0  0
    5.4350    0.2744    0.0479 C   0  0  0  0  0  0  0  0  0  0  0  0
    6.8553    0.6189    0.3204 C   0  0  0  0  0  0  0  0  0  0  0  0
    4.4345    0.9097    0.5980 O   0  0  0  0  0  0  0  0  0  0  0  0
    3.1565    0.6164    0.3669 C   0  0  0  0  0  0  0  0  0  0  0  0
    2.2995    1.3026    0.9582 O   0  0  0  0  0  0  0  0  0  0  0  0
   -3.4273   -0.4935   -0.4847 C   0  0  0  0  0  0  0  0  0  0  0  0
   -7.1628   -0.0508    0.9301 H   0  0  0  0  0  0  0  0  0  0  0  0
   -7.8710   -0.8946   -0.4829 H   0  0  0  0  0  0  0  0  0  0  0  0
   -7.3652    0.8003   -0.6419 H   0  0  0  0  0  0  0  0  0  0  0  0
   -5.6981    1.3652    1.1161 H   0  0  0  0  0  0  0  0  0  0  0  0
   -3.5777    2.3784    1.9446 H   0  0  0  0  0  0  0  0  0  0  0  0
   -1.3871    1.5398    1.2071 H   0  0  0  0  0  0  0  0  0  0  0  0
   -1.0466   -1.3575   -1.2462 H   0  0  0  0  0  0  0  0  0  0  0  0
    0.2263    0.7009    0.4768 H   0  0  0  0  0  0  0  0  0  0  0  0
    4.2485   -2.6225   -2.3851 H   0  0  0  0  0  0  0  0  0  0  0  0
    5.9003   -1.3143   -1.3011 H   0  0  0  0  0  0  0  0  0  0  0  0
    7.2525    1.3294   -0.4614 H   0  0  0  0  0  0  0  0  0  0  0  0
    6.9183    1.1039    1.3013 H   0  0  0  0  0  0  0  0  0  0  0  0
    7.5255   -0.2647    0.2734 H   0  0  0  0  0  0  0  0  0  0  0  0
   -3.3810   -1.3177   -1.1818 H   0  0  0  0  0  0  0  0  0  0  0  0
  1  2  1  0
  2  3  1  0
  3  4  2  0
  4  5  1  0
  5  6  2  0
  6  7  1  0
  7  8  1  0
  8  9  2  0
  9 10  1  0
 10 11  2  0
 10 12  1  0
 12 13  2  0
 13 14  1  0
 13 15  1  0
 15 16  2  0
 16 17  1  0
 16 18  1  0
 18 19  1  0
 19 20  2  0
  7 21  2  0
 21  3  1  0
 19 12  1  0
  1 22  1  0
  1 23  1  0
  1 24  1  0
  4 25  1  0
  5 26  1  0
  6 27  1  0
  8 28  1  0
  9 29  1  0
 14 30  1  0
 15 31  1  0
 17 32  1  0
 17 33  1  0
 17 34  1  0
 21 35  1  0
M  END
