
     RDKit          3D

108115  0  0  0  0  0  0  0  0999 V2000
   -8.4092    4.5704    3.4340 C   0  0  0  0  0  0  0  0  0  0  0  0
   -9.3610    4.0182    2.3984 C   0  0  0  0  0  0  0  0  0  0  0  0
   -8.9317    2.6029    2.0868 C   0  0  0  0  0  0  0  0  0  0  0  0
   -9.8358    1.9637    1.0484 C   0  0  0  0  0  0  0  0  0  0  0  0
   -9.2959    0.5531    0.8296 C   0  0  0  0  0  0  0  0  0  0  0  0
  -10.0887   -0.2017   -0.1726 C   0  0  0  0  0  0  0  0  0  0  0  0
   -9.5608   -1.5898   -0.3482 C   0  0  0  0  0  0  0  0  0  0  0  0
   -8.1670   -1.7326   -0.8141 C   0  0  0  0  0  0  0  0  0  0  0  0
   -7.1716   -1.1948    0.0222 O   0  0  0  0  0  0  0  0  0  0  0  0
   -5.8276   -1.2714   -0.3142 C   0  0  0  0  0  0  0  0  0  0  0  0
   -4.8448   -0.7474    0.5021 C   0  0  0  0  0  0  0  0  0  0  0  0
   -3.5122   -0.8130    0.1875 C   0  0  0  0  0  0  0  0  0  0  0  0
   -3.1161   -1.4259   -0.9869 C   0  0  0  0  0  0  0  0  0  0  0  0
   -1.6897   -1.5834   -1.2630 C   0  0  0  0  0  0  0  0  0  0  0  0
   -0.7100   -1.6184   -0.2482 C   0  0  0  0  0  0  0  0  0  0  0  0
   -0.4688   -1.7374    1.1098 C   0  0  0  0  0  0  0  0  0  0  0  0
    0.8761   -1.7595    1.3097 N   0  0  0  0  0  0  0  0  0  0  0  0
    1.4774   -1.6473    0.1033 C   0  0  0  0  0  0  0  0  0  0  0  0
    2.8992   -1.4238   -0.1519 C   0  0  0  0  0  0  0  0  0  0  0  0
    3.2953   -0.6415   -1.2317 C   0  0  0  0  0  0  0  0  0  0  0  0
    4.6036   -0.4563   -1.5824 C   0  0  0  0  0  0  0  0  0  0  0  0
    5.6155   -1.0739   -0.8293 C   0  0  0  0  0  0  0  0  0  0  0  0
    6.9167   -0.8783   -1.1946 O   0  0  0  0  0  0  0  0  0  0  0  0
    8.1040   -1.3162   -0.6741 C   0  0  0  0  0  0  0  0  0  0  0  0
    8.4598   -0.8982    0.7141 C   0  0  0  0  0  0  0  0  0  0  0  0
    8.5634    0.6059    0.8958 C   0  0  0  0  0  0  0  0  0  0  0  0
    9.6236    1.2097    0.0069 C   0  0  0  0  0  0  0  0  0  0  0  0
    9.6201    2.7082    0.3037 C   0  0  0  0  0  0  0  0  0  0  0  0
   10.6645    3.3493   -0.5572 C   0  0  0  0  0  0  0  0  0  0  0  0
   10.7085    4.8571   -0.2999 C   0  0  0  0  0  0  0  0  0  0  0  0
    9.3768    5.4901   -0.6128 C   0  0  0  0  0  0  0  0  0  0  0  0
    5.2092   -1.8345    0.2241 C   0  0  0  0  0  0  0  0  0  0  0  0
    3.8719   -2.0276    0.5860 C   0  0  0  0  0  0  0  0  0  0  0  0
    0.4908   -1.5658   -0.8956 C   0  0  0  0  0  0  0  0  0  0  0  0
    0.2544   -1.5055   -2.2735 C   0  0  0  0  0  0  0  0  0  0  0  0
   -1.0808   -1.5241   -2.4650 N   0  0  0  0  0  0  0  0  0  0  0  0
   -1.5926   -1.5619   -3.8965 B   0  0  0  0  0  4  0  0  0  0  0  0
   -2.0713   -2.9375   -4.2201 F   0  0  0  0  0  0  0  0  0  0  0  0
   -2.5993   -0.5665   -4.1234 F   0  0  0  0  0  0  0  0  0  0  0  0
   -0.5021   -1.3692   -4.9673 N   0  0  0  0  0  4  0  0  0  0  0  0
   -0.8940   -1.2436   -6.2711 C   0  0  0  0  0  0  0  0  0  0  0  0
    0.0704   -1.1321   -7.2407 C   0  0  0  0  0  0  0  0  0  0  0  0
    1.4003   -1.1507   -6.8670 C   0  0  0  0  0  0  0  0  0  0  0  0
    1.7817   -1.2750   -5.5664 C   0  0  0  0  0  0  0  0  0  0  0  0
    0.7707   -1.3861   -4.5958 C   0  0  0  0  0  0  0  0  0  0  0  0
    1.0897   -1.4552   -3.2371 N   0  0  0  0  0  0  0  0  0  0  0  0
    1.4054   -1.9751    2.7348 B   0  0  0  0  0  4  0  0  0  0  0  0
    2.3974   -1.0028    3.0803 F   0  0  0  0  0  0  0  0  0  0  0  0
    1.9113   -3.3734    2.8558 F   0  0  0  0  0  0  0  0  0  0  0  0
    0.3094   -1.9496    3.7833 N   0  0  0  0  0  4  0  0  0  0  0  0
    0.6742   -1.9954    5.0745 C   0  0  0  0  0  0  0  0  0  0  0  0
   -0.2485   -2.0339    6.0950 C   0  0  0  0  0  0  0  0  0  0  0  0
   -1.5848   -2.0246    5.7637 C   0  0  0  0  0  0  0  0  0  0  0  0
   -1.9260   -1.9764    4.4350 C   0  0  0  0  0  0  0  0  0  0  0  0
   -0.9642   -1.9374    3.4345 C   0  0  0  0  0  0  0  0  0  0  0  0
   -1.2949   -1.8299    2.0853 N   0  0  0  0  0  0  0  0  0  0  0  0
   -4.0726   -1.9506   -1.8103 C   0  0  0  0  0  0  0  0  0  0  0  0
   -5.4419   -1.8809   -1.4862 C   0  0  0  0  0  0  0  0  0  0  0  0
   -8.9629    4.8840    4.3414 H   0  0  0  0  0  0  0  0  0  0  0  0
   -7.6176    3.8349    3.7157 H   0  0  0  0  0  0  0  0  0  0  0  0
   -7.8869    5.4807    3.0622 H   0  0  0  0  0  0  0  0  0  0  0  0
  -10.4117    4.0135    2.7300 H   0  0  0  0  0  0  0  0  0  0  0  0
   -9.2113    4.5999    1.4584 H   0  0  0  0  0  0  0  0  0  0  0  0
   -7.8904    2.5799    1.7057 H   0  0  0  0  0  0  0  0  0  0  0  0
   -8.9528    1.9552    2.9928 H   0  0  0  0  0  0  0  0  0  0  0  0
  -10.8563    1.9503    1.4892 H   0  0  0  0  0  0  0  0  0  0  0  0
   -9.8691    2.5345    0.1160 H   0  0  0  0  0  0  0  0  0  0  0  0
   -8.2461    0.7090    0.4969 H   0  0  0  0  0  0  0  0  0  0  0  0
   -9.3495    0.0394    1.8062 H   0  0  0  0  0  0  0  0  0  0  0  0
  -10.2116    0.3375   -1.1401 H   0  0  0  0  0  0  0  0  0  0  0  0
  -11.1467   -0.2442    0.2320 H   0  0  0  0  0  0  0  0  0  0  0  0
  -10.2176   -2.0986   -1.1104 H   0  0  0  0  0  0  0  0  0  0  0  0
   -9.7445   -2.1579    0.5979 H   0  0  0  0  0  0  0  0  0  0  0  0
   -7.9823   -2.8360   -0.9853 H   0  0  0  0  0  0  0  0  0  0  0  0
   -8.1193   -1.2681   -1.8473 H   0  0  0  0  0  0  0  0  0  0  0  0
   -5.1343   -0.2660    1.4255 H   0  0  0  0  0  0  0  0  0  0  0  0
   -2.7644   -0.3474    0.8078 H   0  0  0  0  0  0  0  0  0  0  0  0
    2.5706   -0.0730   -1.8357 H   0  0  0  0  0  0  0  0  0  0  0  0
    4.8993    0.1606   -2.4356 H   0  0  0  0  0  0  0  0  0  0  0  0
    8.2144   -2.4420   -0.6882 H   0  0  0  0  0  0  0  0  0  0  0  0
    8.9436   -0.9310   -1.3312 H   0  0  0  0  0  0  0  0  0  0  0  0
    9.5279   -1.2612    0.8781 H   0  0  0  0  0  0  0  0  0  0  0  0
    7.8562   -1.2791    1.5263 H   0  0  0  0  0  0  0  0  0  0  0  0
    7.6202    1.1255    0.7206 H   0  0  0  0  0  0  0  0  0  0  0  0
    8.9090    0.7505    1.9572 H   0  0  0  0  0  0  0  0  0  0  0  0
   10.6350    0.8231    0.2085 H   0  0  0  0  0  0  0  0  0  0  0  0
    9.4061    1.0310   -1.0677 H   0  0  0  0  0  0  0  0  0  0  0  0
    9.8246    2.8221    1.3858 H   0  0  0  0  0  0  0  0  0  0  0  0
    8.6368    3.1544    0.0746 H   0  0  0  0  0  0  0  0  0  0  0  0
   10.3578    3.2376   -1.6162 H   0  0  0  0  0  0  0  0  0  0  0  0
   11.6351    2.8916   -0.3342 H   0  0  0  0  0  0  0  0  0  0  0  0
   10.9884    5.0028    0.7641 H   0  0  0  0  0  0  0  0  0  0  0  0
   11.4657    5.2742   -0.9711 H   0  0  0  0  0  0  0  0  0  0  0  0
    9.0609    5.2264   -1.6241 H   0  0  0  0  0  0  0  0  0  0  0  0
    9.5209    6.5935   -0.4738 H   0  0  0  0  0  0  0  0  0  0  0  0
    8.5958    5.2089    0.1295 H   0  0  0  0  0  0  0  0  0  0  0  0
    5.9527   -2.3385    0.8216 H   0  0  0  0  0  0  0  0  0  0  0  0
    3.6960   -2.6634    1.4379 H   0  0  0  0  0  0  0  0  0  0  0  0
   -1.9519   -1.2368   -6.4918 H   0  0  0  0  0  0  0  0  0  0  0  0
   -0.2505   -1.0321   -8.2776 H   0  0  0  0  0  0  0  0  0  0  0  0
    2.1417   -1.0629   -7.6440 H   0  0  0  0  0  0  0  0  0  0  0  0
    2.8141   -1.2941   -5.2312 H   0  0  0  0  0  0  0  0  0  0  0  0
    1.7132   -2.0033    5.3561 H   0  0  0  0  0  0  0  0  0  0  0  0
    0.0259   -2.0703    7.1261 H   0  0  0  0  0  0  0  0  0  0  0  0
   -2.3625   -2.0553    6.5503 H   0  0  0  0  0  0  0  0  0  0  0  0
   -2.9634   -1.9680    4.1467 H   0  0  0  0  0  0  0  0  0  0  0  0
   -3.8802   -2.4527   -2.7369 H   0  0  0  0  0  0  0  0  0  0  0  0
   -6.2056   -2.2917   -2.1291 H   0  0  0  0  0  0  0  0  0  0  0  0
  1  2  1  0
  2  3  1  0
  3  4  1  0
  4  5  1  0
  5  6  1  0
  6  7  1  0
  7  8  1  0
  8  9  1  0
  9 10  1  0
 10 11  2  0
 11 12  1  0
 12 13  2  0
 13 14  1  0
 14 15  2  0
 15 16  1  0
 16 17  1  0
 17 18  1  0
 18 19  1  0
 19 20  2  0
 20 21  1  0
 21 22  2  0
 22 23  1  0
 23 24  1  0
 24 25  1  0
 25 26  1  0
 26 27  1  0
 27 28  1  0
 28 29  1  0
 29 30  1  0
 30 31  1  0
 22 32  1  0
 32 33  2  0
 18 34  2  0
 34 35  1  0
 35 36  1  0
 36 37  1  0
 37 38  1  0
 37 39  1  0
 37 40  1  0
 40 41  2  0
 41 42  1  0
 42 43  2  0
 43 44  1  0
 44 45  2  0
 45 46  1  0
 17 47  1  0
 47 48  1  0
 47 49  1  0
 47 50  1  0
 50 51  2  0
 51 52  1  0
 52 53  2  0
 53 54  1  0
 54 55  2  0
 55 56  1  0
 13 57  1  0
 57 58  2  0
 58 10  1  0
 36 14  1  0
 45 40  1  0
 55 50  1  0
 34 15  1  0
 46 35  2  0
 56 16  2  0
 33 19  1  0
  1 59  1  0
  1 60  1  0
  1 61  1  0
  2 62  1  0
  2 63  1  0
  3 64  1  0
  3 65  1  0
  4 66  1  0
  4 67  1  0
  5 68  1  0
  5 69  1  0
  6 70  1  0
  6 71  1  0
  7 72  1  0
  7 73  1  0
  8 74  1  0
  8 75  1  0
 11 76  1  0
 12 77  1  0
 20 78  1  0
 21 79  1  0
 24 80  1  0
 24 81  1  0
 25 82  1  0
 25 83  1  0
 26 84  1  0
 26 85  1  0
 27 86  1  0
 27 87  1  0
 28 88  1  0
 28 89  1  0
 29 90  1  0
 29 91  1  0
 30 92  1  0
 30 93  1  0
 31 94  1  0
 31 95  1  0
 31 96  1  0
 32 97  1  0
 33 98  1  0
 41 99  1  0
 42100  1  0
 43101  1  0
 44102  1  0
 51103  1  0
 52104  1  0
 53105  1  0
 54106  1  0
 57107  1  0
 58108  1  0
M  CHG  4  37  -1  40   1  47  -1  50   1
M  END
