
     RDKit          3D

 84 91  0  0  0  0  0  0  0  0999 V2000
    7.4971    0.7106   -2.1859 C   0  0  0  0  0  0  0  0  0  0  0  0
    8.0597   -0.4859   -1.4832 C   0  0  0  0  0  0  0  0  0  0  0  0
    7.3055   -0.8738   -0.3230 N   0  0  0  0  0  0  0  0  0  0  0  0
    7.7743   -2.0246    0.4260 C   0  0  0  0  0  0  0  0  0  0  0  0
    9.1029   -1.6193    1.0767 C   0  0  0  0  0  0  0  0  0  0  0  0
    6.1380   -0.2243    0.1523 C   0  0  0  0  0  0  0  0  0  0  0  0
    6.2970    0.8090    1.0606 C   0  0  0  0  0  0  0  0  0  0  0  0
    5.1764    1.4618    1.5424 C   0  0  0  0  0  0  0  0  0  0  0  0
    3.8951    1.1273    1.1558 C   0  0  0  0  0  0  0  0  0  0  0  0
    2.7865    1.7866    1.6443 C   0  0  0  0  0  0  0  0  0  0  0  0
    1.4852    1.4401    1.2459 C   0  0  0  0  0  0  0  0  0  0  0  0
    1.3300    0.4279    0.3560 C   0  0  0  0  0  0  0  0  0  0  0  0
    2.4756   -0.2421   -0.1388 C   0  0  0  0  0  0  0  0  0  0  0  0
    3.7430    0.0972    0.2509 C   0  0  0  0  0  0  0  0  0  0  0  0
    4.8654   -0.5609   -0.2356 C   0  0  0  0  0  0  0  0  0  0  0  0
    0.0079   -0.0155   -0.1306 C   0  0  0  0  0  0  0  0  0  0  0  0
   -0.0369    0.0790   -1.6033 C   0  0  0  0  0  0  0  0  0  0  0  0
    0.0798    1.2944   -2.2618 C   0  0  0  0  0  0  0  0  0  0  0  0
    0.0402    1.3948   -3.6338 C   0  0  0  0  0  0  0  0  0  0  0  0
   -0.1209    0.2590   -4.4043 C   0  0  0  0  0  0  0  0  0  0  0  0
   -0.2382   -0.9444   -3.7939 C   0  0  0  0  0  0  0  0  0  0  0  0
   -0.1948   -1.0222   -2.3943 C   0  0  0  0  0  0  0  0  0  0  0  0
   -0.3251   -2.3056   -1.8827 O   0  0  0  0  0  0  0  0  0  0  0  0
   -0.2957   -2.4950   -0.5095 C   0  0  0  0  0  0  0  0  0  0  0  0
   -0.4289   -3.8018   -0.0070 C   0  0  0  0  0  0  0  0  0  0  0  0
   -0.4057   -4.0321    1.3273 C   0  0  0  0  0  0  0  0  0  0  0  0
   -0.2492   -2.9563    2.1643 C   0  0  0  0  0  0  0  0  0  0  0  0
   -0.1177   -1.6717    1.6848 C   0  0  0  0  0  0  0  0  0  0  0  0
   -0.1399   -1.4181    0.3034 C   0  0  0  0  0  0  0  0  0  0  0  0
   -1.1214    0.7658    0.4684 C   0  0  0  0  0  0  0  0  0  0  0  0
   -2.4175    0.4154    0.0699 C   0  0  0  0  0  0  0  0  0  0  0  0
   -3.5403    1.0507    0.5386 C   0  0  0  0  0  0  0  0  0  0  0  0
   -4.8118    0.6387    0.0868 C   0  0  0  0  0  0  0  0  0  0  0  0
   -5.9517    1.2618    0.5417 C   0  0  0  0  0  0  0  0  0  0  0  0
   -7.2311    0.8387    0.0875 N   0  0  0  0  0  0  0  0  0  0  0  0
   -8.4281    1.5174    0.5260 C   0  0  0  0  0  0  0  0  0  0  0  0
   -9.2766    0.7290    1.4918 C   0  0  0  0  0  0  0  0  0  0  0  0
   -7.3611   -0.2834   -0.7921 C   0  0  0  0  0  0  0  0  0  0  0  0
   -7.9546   -1.4495   -0.0600 C   0  0  0  0  0  0  0  0  0  0  0  0
   -5.7658    2.2896    1.4472 C   0  0  0  0  0  0  0  0  0  0  0  0
   -4.5104    2.6982    1.8948 C   0  0  0  0  0  0  0  0  0  0  0  0
   -3.3900    2.0778    1.4402 C   0  0  0  0  0  0  0  0  0  0  0  0
   -2.1215    2.4371    1.8444 C   0  0  0  0  0  0  0  0  0  0  0  0
   -1.0077    1.7855    1.3611 C   0  0  0  0  0  0  0  0  0  0  0  0
    0.3414    2.1594    1.7851 C   0  0  0  0  0  0  0  0  0  0  0  0
    0.4624    3.0997    2.6098 O   0  0  0  0  0  0  0  0  0  0  0  0
    7.1349    1.4983   -1.5125 H   0  0  0  0  0  0  0  0  0  0  0  0
    6.7609    0.3853   -2.9407 H   0  0  0  0  0  0  0  0  0  0  0  0
    8.3447    1.1696   -2.7652 H   0  0  0  0  0  0  0  0  0  0  0  0
    9.1370   -0.3390   -1.2341 H   0  0  0  0  0  0  0  0  0  0  0  0
    8.0305   -1.3431   -2.1930 H   0  0  0  0  0  0  0  0  0  0  0  0
    7.9137   -2.8994   -0.2302 H   0  0  0  0  0  0  0  0  0  0  0  0
    7.1100   -2.3041    1.2447 H   0  0  0  0  0  0  0  0  0  0  0  0
    9.3910   -2.4063    1.7918 H   0  0  0  0  0  0  0  0  0  0  0  0
    8.9508   -0.6509    1.5969 H   0  0  0  0  0  0  0  0  0  0  0  0
    9.8398   -1.5131    0.2807 H   0  0  0  0  0  0  0  0  0  0  0  0
    7.3011    1.0773    1.3685 H   0  0  0  0  0  0  0  0  0  0  0  0
    5.2774    2.2760    2.2562 H   0  0  0  0  0  0  0  0  0  0  0  0
    2.8721    2.5957    2.3527 H   0  0  0  0  0  0  0  0  0  0  0  0
    2.3338   -1.0467   -0.8475 H   0  0  0  0  0  0  0  0  0  0  0  0
    4.7286   -1.3720   -0.9495 H   0  0  0  0  0  0  0  0  0  0  0  0
    0.2049    2.1761   -1.6578 H   0  0  0  0  0  0  0  0  0  0  0  0
    0.1297    2.3352   -4.1664 H   0  0  0  0  0  0  0  0  0  0  0  0
   -0.1524    0.3385   -5.5008 H   0  0  0  0  0  0  0  0  0  0  0  0
   -0.3649   -1.8374   -4.4054 H   0  0  0  0  0  0  0  0  0  0  0  0
   -0.5483   -4.5904   -0.7525 H   0  0  0  0  0  0  0  0  0  0  0  0
   -0.5116   -5.0537    1.6726 H   0  0  0  0  0  0  0  0  0  0  0  0
   -0.2310   -3.1460    3.2284 H   0  0  0  0  0  0  0  0  0  0  0  0
    0.0062   -0.8136    2.3279 H   0  0  0  0  0  0  0  0  0  0  0  0
   -2.5278   -0.4009   -0.6460 H   0  0  0  0  0  0  0  0  0  0  0  0
   -4.8030   -0.1856   -0.6208 H   0  0  0  0  0  0  0  0  0  0  0  0
   -9.0526    1.7577   -0.3985 H   0  0  0  0  0  0  0  0  0  0  0  0
   -8.2512    2.5124    0.9627 H   0  0  0  0  0  0  0  0  0  0  0  0
   -8.6624    0.4315    2.3593 H   0  0  0  0  0  0  0  0  0  0  0  0
   -9.8922   -0.0433    1.0415 H   0  0  0  0  0  0  0  0  0  0  0  0
  -10.0010    1.4878    1.9183 H   0  0  0  0  0  0  0  0  0  0  0  0
   -8.1234    0.0444   -1.5988 H   0  0  0  0  0  0  0  0  0  0  0  0
   -6.4828   -0.5418   -1.3885 H   0  0  0  0  0  0  0  0  0  0  0  0
   -7.3444   -2.3536   -0.3907 H   0  0  0  0  0  0  0  0  0  0  0  0
   -7.9216   -1.3796    1.0340 H   0  0  0  0  0  0  0  0  0  0  0  0
   -8.9910   -1.6575   -0.4236 H   0  0  0  0  0  0  0  0  0  0  0  0
   -6.6236    2.8102    1.8443 H   0  0  0  0  0  0  0  0  0  0  0  0
   -4.4041    3.5103    2.6065 H   0  0  0  0  0  0  0  0  0  0  0  0
   -1.9990    3.2456    2.5538 H   0  0  0  0  0  0  0  0  0  0  0  0
  1  2  1  0
  2  3  1  0
  3  4  1  0
  4  5  1  0
  3  6  1  0
  6  7  2  0
  7  8  1  0
  8  9  2  0
  9 10  1  0
 10 11  2  0
 11 12  1  0
 12 13  2  0
 13 14  1  0
 14 15  2  0
 12 16  1  0
 16 17  1  0
 17 18  2  0
 18 19  1  0
 19 20  2  0
 20 21  1  0
 21 22  2  0
 22 23  1  0
 23 24  1  0
 24 25  2  0
 25 26  1  0
 26 27  2  0
 27 28  1  0
 28 29  2  0
 16 30  1  0
 30 31  2  0
 31 32  1  0
 32 33  2  0
 33 34  1  0
 34 35  1  0
 35 36  1  0
 36 37  1  0
 35 38  1  0
 38 39  1  0
 34 40  2  0
 40 41  1  0
 41 42  2  0
 42 43  1  0
 43 44  2  0
 44 45  1  0
 45 46  2  0
 15  6  1  0
 29 16  1  0
 44 30  1  0
 14  9  1  0
 22 17  1  0
 29 24  1  0
 42 32  1  0
 45 11  1  0
  1 47  1  0
  1 48  1  0
  1 49  1  0
  2 50  1  0
  2 51  1  0
  4 52  1  0
  4 53  1  0
  5 54  1  0
  5 55  1  0
  5 56  1  0
  7 57  1  0
  8 58  1  0
 10 59  1  0
 13 60  1  0
 15 61  1  0
 18 62  1  0
 19 63  1  0
 20 64  1  0
 21 65  1  0
 25 66  1  0
 26 67  1  0
 27 68  1  0
 28 69  1  0
 31 70  1  0
 33 71  1  0
 36 72  1  0
 36 73  1  0
 37 74  1  0
 37 75  1  0
 37 76  1  0
 38 77  1  0
 38 78  1  0
 39 79  1  0
 39 80  1  0
 39 81  1  0
 40 82  1  0
 41 83  1  0
 43 84  1  0
M  END
