
     RDKit          3D

 56 60  0  0  0  0  0  0  0  0999 V2000
    3.9069    0.3773    3.1715 C   0  0  0  0  0  0  0  0  0  0  0  0
    2.6721    0.2667    2.5484 O   0  0  0  0  0  0  0  0  0  0  0  0
    2.3971    0.3282    1.2500 C   0  0  0  0  0  0  0  0  0  0  0  0
    3.5402    0.5190    0.4046 C   0  0  0  0  0  0  0  0  0  0  0  0
    3.3221    0.5590   -0.9228 C   0  0  0  0  0  0  0  0  0  0  0  0
    2.1124    0.4379   -1.5753 C   0  0  0  0  0  0  0  0  0  0  0  0
    2.1545    0.1065   -2.8737 C   0  0  0  0  0  0  0  0  0  0  0  0
    3.2034    0.1787   -3.8251 C   0  0  0  0  0  0  0  0  0  0  0  0
    4.1497    0.9944   -4.1014 C   0  0  0  0  0  0  0  0  0  0  0  0
    4.7120    2.2593   -3.6301 C   0  0  0  0  0  0  0  0  0  0  0  0
    5.0788    3.1152   -3.3045 N   0  0  0  0  0  0  0  0  0  0  0  0
    4.9840    0.4977   -5.2965 C   0  0  0  0  0  0  0  0  0  0  0  0
    5.6160    0.1268   -6.2035 N   0  0  0  0  0  0  0  0  0  0  0  0
    0.9844   -0.4491   -3.3982 C   0  0  0  0  0  0  0  0  0  0  0  0
   -0.1256   -0.5989   -2.6714 C   0  0  0  0  0  0  0  0  0  0  0  0
   -1.0868   -1.4612   -3.1248 C   0  0  0  0  0  0  0  0  0  0  0  0
   -2.1079   -1.9418   -2.3959 C   0  0  0  0  0  0  0  0  0  0  0  0
   -2.2188   -1.4561   -1.0489 C   0  0  0  0  0  0  0  0  0  0  0  0
   -3.3828   -1.8924   -0.4859 C   0  0  0  0  0  0  0  0  0  0  0  0
   -3.6036   -1.2394    0.7818 C   0  0  0  0  0  0  0  0  0  0  0  0
   -4.7620   -1.7160    1.4745 C   0  0  0  0  0  0  0  0  0  0  0  0
   -5.9316   -2.0046    1.2397 C   0  0  0  0  0  0  0  0  0  0  0  0
   -6.6506   -1.9543    0.0150 C   0  0  0  0  0  0  0  0  0  0  0  0
   -7.2695   -1.8889   -1.0369 N   0  0  0  0  0  0  0  0  0  0  0  0
   -6.8204   -2.4421    2.3949 C   0  0  0  0  0  0  0  0  0  0  0  0
   -7.4773   -2.7850    3.2696 N   0  0  0  0  0  0  0  0  0  0  0  0
   -2.7592   -0.4345    1.0392 C   0  0  0  0  0  0  0  0  0  0  0  0
   -2.9464    0.0831    2.5566 C   0  0  0  0  0  0  0  0  0  0  0  0
   -2.0417    0.8886    3.0042 C   0  0  0  0  0  0  0  0  0  0  0  0
   -0.8818    1.4628    2.5392 C   0  0  0  0  0  0  0  0  0  0  0  0
   -0.1104    2.2235    3.0868 O   0  0  0  0  0  0  0  0  0  0  0  0
    0.9716    2.9976    3.1909 C   0  0  0  0  0  0  0  0  0  0  0  0
   -0.6819    0.9555    1.0680 C   0  0  0  0  0  0  0  0  0  0  0  0
   -1.5844    0.2107    0.7779 C   0  0  0  0  0  0  0  0  0  0  0  0
   -1.2799   -0.5927   -0.5870 C   0  0  0  0  0  0  0  0  0  0  0  0
   -0.2169   -0.1872   -1.3040 C   0  0  0  0  0  0  0  0  0  0  0  0
    0.9233    0.2910   -0.7375 C   0  0  0  0  0  0  0  0  0  0  0  0
    1.2262    0.2300    0.5608 C   0  0  0  0  0  0  0  0  0  0  0  0
    4.5720   -0.5380    2.9924 H   0  0  0  0  0  0  0  0  0  0  0  0
    3.7584    0.4675    4.2854 H   0  0  0  0  0  0  0  0  0  0  0  0
    4.5173    1.2785    2.9026 H   0  0  0  0  0  0  0  0  0  0  0  0
    4.5041    0.6077    0.8345 H   0  0  0  0  0  0  0  0  0  0  0  0
    4.2021    0.6521   -1.6019 H   0  0  0  0  0  0  0  0  0  0  0  0
    3.2555   -0.7360   -4.5758 H   0  0  0  0  0  0  0  0  0  0  0  0
    0.9471   -0.7558   -4.4597 H   0  0  0  0  0  0  0  0  0  0  0  0
   -0.9991   -1.8061   -4.1638 H   0  0  0  0  0  0  0  0  0  0  0  0
   -2.8190   -2.6588   -2.7204 H   0  0  0  0  0  0  0  0  0  0  0  0
   -4.0299   -2.6047   -0.8608 H   0  0  0  0  0  0  0  0  0  0  0  0
   -4.4715   -1.9645    2.5975 H   0  0  0  0  0  0  0  0  0  0  0  0
   -3.8250   -0.2905    2.9506 H   0  0  0  0  0  0  0  0  0  0  0  0
   -2.2899    1.2689    4.0918 H   0  0  0  0  0  0  0  0  0  0  0  0
    1.8019    2.4937    3.7801 H   0  0  0  0  0  0  0  0  0  0  0  0
    1.4688    3.4165    2.3071 H   0  0  0  0  0  0  0  0  0  0  0  0
    0.7875    3.9271    3.8459 H   0  0  0  0  0  0  0  0  0  0  0  0
    0.0633    1.5744    0.6460 H   0  0  0  0  0  0  0  0  0  0  0  0
    0.5412   -0.3972    1.2983 H   0  0  0  0  0  0  0  0  0  0  0  0
  1  2  1  0
  2  3  1  0
  3  4  2  0
  4  5  1  0
  5  6  2  0
  6  7  1  0
  7  8  1  0
  8  9  2  3
  9 10  1  0
 10 11  3  0
  9 12  1  0
 12 13  3  0
  7 14  2  0
 14 15  1  0
 15 16  2  0
 16 17  1  0
 17 18  2  0
 18 19  1  0
 19 20  2  0
 20 21  1  0
 21 22  2  3
 22 23  1  0
 23 24  3  0
 22 25  1  0
 25 26  3  0
 20 27  1  0
 27 28  2  0
 28 29  1  0
 29 30  2  0
 30 31  1  0
 31 32  1  0
 30 33  1  0
 33 34  2  0
 34 35  1  0
 35 36  2  0
 36 37  1  0
 37 38  2  0
 38  3  1  0
 37  6  1  0
 36 15  1  0
 35 18  1  0
 34 27  1  0
  1 39  1  0
  1 40  1  0
  1 41  1  0
  4 42  1  0
  5 43  1  0
  8 44  1  0
 14 45  1  0
 16 46  1  0
 17 47  1  0
 19 48  1  0
 21 49  1  0
 28 50  1  0
 29 51  1  0
 32 52  1  0
 32 53  1  0
 32 54  1  0
 33 55  1  0
 38 56  1  0
M  END
