
     RDKit          3D

 22 24  0  0  0  0  0  0  0  0999 V2000
   -2.3336   -0.8204   -2.8076 C   0  0  0  0  0  0  0  0  0  0  0  0
   -2.5573    0.5367   -2.8539 C   0  0  0  0  0  0  0  0  0  0  0  0
   -1.8585    1.3021   -1.9326 C   0  0  0  0  0  0  0  0  0  0  0  0
   -0.9936    0.7732   -1.0213 C   0  0  0  0  0  0  0  0  0  0  0  0
   -0.7605   -0.5711   -0.9622 C   0  0  0  0  0  0  0  0  0  0  0  0
   -1.4671   -1.3525   -1.8949 C   0  0  0  0  0  0  0  0  0  0  0  0
    0.0940   -1.1855   -0.0760 O   0  0  0  0  0  0  0  0  0  0  0  0
    0.8518   -0.5552    0.8922 C   0  0  0  0  0  0  0  0  0  0  0  0
    1.6807   -1.3229    1.7251 C   0  0  0  0  0  0  0  0  0  0  0  0
    2.4588   -0.7676    2.7050 C   0  0  0  0  0  0  0  0  0  0  0  0
    2.4473    0.6092    2.9054 C   0  0  0  0  0  0  0  0  0  0  0  0
    1.6327    1.3779    2.0890 C   0  0  0  0  0  0  0  0  0  0  0  0
    0.8706    0.7914    1.1227 C   0  0  0  0  0  0  0  0  0  0  0  0
   -0.1488    1.8440    0.1151 S   0  0  0  0  0  0  0  0  0  0  0  0
   -2.8587   -1.4441   -3.5075 H   0  0  0  0  0  0  0  0  0  0  0  0
   -3.2333    0.9996   -3.5585 H   0  0  0  0  0  0  0  0  0  0  0  0
   -2.0179    2.3840   -1.9478 H   0  0  0  0  0  0  0  0  0  0  0  0
   -1.2780   -2.4344   -1.8455 H   0  0  0  0  0  0  0  0  0  0  0  0
    1.7006   -2.3903    1.5824 H   0  0  0  0  0  0  0  0  0  0  0  0
    3.0988   -1.3311    3.3527 H   0  0  0  0  0  0  0  0  0  0  0  0
    3.0349    1.0907    3.6551 H   0  0  0  0  0  0  0  0  0  0  0  0
    1.6373    2.4664    2.2631 H   0  0  0  0  0  0  0  0  0  0  0  0
  1  2  2  0
  2  3  1  0
  3  4  2  0
  4  5  1  0
  5  6  2  0
  5  7  1  0
  7  8  1  0
  8  9  2  0
  9 10  1  0
 10 11  2  0
 11 12  1  0
 12 13  2  0
 13 14  1  0
  6  1  1  0
 13  8  1  0
 14  4  1  0
  1 15  1  0
  2 16  1  0
  3 17  1  0
  6 18  1  0
  9 19  1  0
 10 20  1  0
 11 21  1  0
 12 22  1  0
M  END
