
     RDKit          3D

 31 33  0  0  0  0  0  0  0  0999 V2000
   -0.9827    1.6813    0.8244 C   0  0  0  0  0  0  0  0  0  0  0  0
   -0.3836    0.4303    0.2955 C   0  0  0  0  0  0  0  0  0  0  0  0
   -1.1104   -0.5231   -0.2298 C   0  0  0  0  0  0  0  0  0  0  0  0
   -2.5544   -0.4564   -0.3479 C   0  0  0  0  0  0  0  0  0  0  0  0
   -3.1845   -0.7300   -1.5694 C   0  0  0  0  0  0  0  0  0  0  0  0
   -4.5553   -0.7038   -1.7128 C   0  0  0  0  0  0  0  0  0  0  0  0
   -5.3759   -0.4002   -0.6307 C   0  0  0  0  0  0  0  0  0  0  0  0
   -4.7704   -0.1300    0.5752 C   0  0  0  0  0  0  0  0  0  0  0  0
   -3.3721   -0.1570    0.7179 C   0  0  0  0  0  0  0  0  0  0  0  0
    1.0872    0.2510    0.3570 C   0  0  0  0  0  0  0  0  0  0  0  0
    1.9904    1.1224    0.8141 N   0  0  0  0  0  0  0  0  0  0  0  0
    3.2277    0.6209    0.7162 C   0  0  0  0  0  0  0  0  0  0  0  0
    4.5013    1.0864    1.0328 C   0  0  0  0  0  0  0  0  0  0  0  0
    5.6269    0.3320    0.8164 C   0  0  0  0  0  0  0  0  0  0  0  0
    5.4673   -0.9425    0.2603 C   0  0  0  0  0  0  0  0  0  0  0  0
    4.2056   -1.3776   -0.0433 C   0  0  0  0  0  0  0  0  0  0  0  0
    3.0627   -0.6364    0.1648 C   0  0  0  0  0  0  0  0  0  0  0  0
    1.7782   -0.8095   -0.0302 O   0  0  0  0  0  0  0  0  0  0  0  0
   -1.2530    1.6025    1.8922 H   0  0  0  0  0  0  0  0  0  0  0  0
   -0.2163    2.5147    0.7980 H   0  0  0  0  0  0  0  0  0  0  0  0
   -1.8534    1.9986    0.1787 H   0  0  0  0  0  0  0  0  0  0  0  0
   -0.5760   -1.4197   -0.5975 H   0  0  0  0  0  0  0  0  0  0  0  0
   -2.5281   -0.9638   -2.4083 H   0  0  0  0  0  0  0  0  0  0  0  0
   -5.0380   -0.9164   -2.6664 H   0  0  0  0  0  0  0  0  0  0  0  0
   -6.4520   -0.3795   -0.7529 H   0  0  0  0  0  0  0  0  0  0  0  0
   -5.4067    0.1035    1.4165 H   0  0  0  0  0  0  0  0  0  0  0  0
   -2.9635    0.0522    1.6985 H   0  0  0  0  0  0  0  0  0  0  0  0
    4.6060    2.0690    1.4575 H   0  0  0  0  0  0  0  0  0  0  0  0
    6.6328    0.6363    1.0377 H   0  0  0  0  0  0  0  0  0  0  0  0
    6.3205   -1.5832    0.0679 H   0  0  0  0  0  0  0  0  0  0  0  0
    4.0697   -2.3719   -0.4776 H   0  0  0  0  0  0  0  0  0  0  0  0
  1  2  1  0
  2  3  2  0
  3  4  1  0
  4  5  2  0
  5  6  1  0
  6  7  2  0
  7  8  1  0
  8  9  2  0
  2 10  1  0
 10 11  2  0
 11 12  1  0
 12 13  2  0
 13 14  1  0
 14 15  2  0
 15 16  1  0
 16 17  2  0
 17 18  1  0
  9  4  1  0
 18 10  1  0
 17 12  1  0
  1 19  1  0
  1 20  1  0
  1 21  1  0
  3 22  1  0
  5 23  1  0
  6 24  1  0
  7 25  1  0
  8 26  1  0
  9 27  1  0
 13 28  1  0
 14 29  1  0
 15 30  1  0
 16 31  1  0
M  END
