
     RDKit          3D

 45 49  0  0  0  0  0  0  0  0999 V2000
   -3.4593    2.4020   -1.7332 N   0  0  0  0  0  0  0  0  0  0  0  0
   -2.4057    2.2990   -1.2709 C   0  0  0  0  0  0  0  0  0  0  0  0
   -1.0905    2.1558   -0.7036 C   0  0  0  0  0  0  0  0  0  0  0  0
   -0.4106    0.9550   -0.6420 C   0  0  0  0  0  0  0  0  0  0  0  0
   -0.8433   -0.3003   -1.0971 N   0  0  0  0  0  0  0  0  0  0  0  0
   -0.3152   -1.0897   -2.0165 N   0  0  0  0  0  0  0  0  0  0  0  0
   -1.0183   -2.1976   -2.1646 N   0  0  0  0  0  0  0  0  0  0  0  0
   -2.0636   -2.1592   -1.3137 C   0  0  0  0  0  0  0  0  0  0  0  0
   -3.1004   -3.0321   -1.0487 C   0  0  0  0  0  0  0  0  0  0  0  0
   -4.0408   -2.7030   -0.0960 C   0  0  0  0  0  0  0  0  0  0  0  0
   -3.9531   -1.5138    0.5904 C   0  0  0  0  0  0  0  0  0  0  0  0
   -5.1547   -1.0974    1.8049 Cl  0  0  0  0  0  0  0  0  0  0  0  0
   -2.9058   -0.6639    0.3025 C   0  0  0  0  0  0  0  0  0  0  0  0
   -1.9399   -0.9599   -0.6492 C   0  0  0  0  0  0  0  0  0  0  0  0
    0.7773    1.1832   -0.0555 N   0  0  0  0  0  0  0  0  0  0  0  0
    1.8238    0.2547    0.2287 C   0  0  1  0  0  0  0  0  0  0  0  0
    1.4470   -0.5032    1.5022 C   0  0  0  0  0  0  0  0  0  0  0  0
    1.9245   -1.9040    1.1741 C   0  0  2  0  0  0  0  0  0  0  0  0
    2.6599   -2.4546    2.2215 O   0  0  0  0  0  0  0  0  0  0  0  0
    2.7897   -1.6516   -0.0424 C   0  0  1  0  0  0  0  0  0  0  0  0
    2.9957   -2.9048   -0.8587 C   0  0  0  0  0  0  0  0  0  0  0  0
    3.7613   -3.7915   -0.1418 O   0  0  0  0  0  0  0  0  0  0  0  0
    2.0089   -0.7165   -0.7428 O   0  0  0  0  0  0  0  0  0  0  0  0
    0.8670    2.5091    0.2581 C   0  0  0  0  0  0  0  0  0  0  0  0
    1.8131    3.2616    0.8425 N   0  0  0  0  0  0  0  0  0  0  0  0
    1.6110    4.5768    1.0213 C   0  0  0  0  0  0  0  0  0  0  0  0
    0.4802    5.1891    0.6337 N   0  0  0  0  0  0  0  0  0  0  0  0
   -0.5062    4.4672    0.0373 C   0  0  0  0  0  0  0  0  0  0  0  0
   -1.7125    5.0653   -0.3875 N   0  0  0  0  0  0  0  0  0  0  0  0
   -0.2912    3.1358   -0.1390 C   0  0  0  0  0  0  0  0  0  0  0  0
   -3.2060   -3.9761   -1.5651 H   0  0  0  0  0  0  0  0  0  0  0  0
   -4.8791   -3.3455    0.1585 H   0  0  0  0  0  0  0  0  0  0  0  0
   -2.8695    0.2608    0.8616 H   0  0  0  0  0  0  0  0  0  0  0  0
    2.8041    0.7448    0.3851 H   0  0  0  0  0  0  0  0  0  0  0  0
    2.0121   -0.1106    2.3502 H   0  0  0  0  0  0  0  0  0  0  0  0
    0.3488   -0.4593    1.6745 H   0  0  0  0  0  0  0  0  0  0  0  0
    1.0873   -2.5607    0.8598 H   0  0  0  0  0  0  0  0  0  0  0  0
    2.8456   -3.3948    1.9717 H   0  0  0  0  0  0  0  0  0  0  0  0
    3.7487   -1.2123    0.2965 H   0  0  0  0  0  0  0  0  0  0  0  0
    3.5404   -2.5802   -1.7872 H   0  0  0  0  0  0  0  0  0  0  0  0
    2.0173   -3.3413   -1.0684 H   0  0  0  0  0  0  0  0  0  0  0  0
    4.7050   -3.5738   -0.0653 H   0  0  0  0  0  0  0  0  0  0  0  0
    2.3893    5.1778    1.4984 H   0  0  0  0  0  0  0  0  0  0  0  0
   -2.3431    5.4925    0.3062 H   0  0  0  0  0  0  0  0  0  0  0  0
   -1.9491    5.0674   -1.3904 H   0  0  0  0  0  0  0  0  0  0  0  0
  1  2  3  0
  2  3  1  0
  3  4  2  0
  4  5  1  0
  5  6  1  0
  6  7  2  0
  7  8  1  0
  8  9  2  0
  9 10  1  0
 10 11  2  0
 11 12  1  0
 11 13  1  0
 13 14  2  0
  4 15  1  0
 15 16  1  0
 16 17  1  0
 17 18  1  0
 18 19  1  0
 18 20  1  0
 20 21  1  0
 21 22  1  0
 20 23  1  0
 15 24  1  0
 24 25  2  0
 25 26  1  0
 26 27  2  0
 27 28  1  0
 28 29  1  0
 28 30  2  0
 30  3  1  0
 14  5  1  0
 23 16  1  0
 30 24  1  0
 14  8  1  0
  9 31  1  0
 10 32  1  0
 13 33  1  0
 16 34  1  1
 17 35  1  0
 17 36  1  0
 18 37  1  6
 19 38  1  0
 20 39  1  1
 21 40  1  0
 21 41  1  0
 22 42  1  0
 26 43  1  0
 29 44  1  0
 29 45  1  0
M  END
