
     RDKit          3D

 62 67  0  0  0  0  0  0  0  0999 V2000
   -6.1934    4.9478   -0.0267 C   0  0  0  0  0  0  0  0  0  0  0  0
   -5.3820    3.7042   -0.0542 C   0  0  0  0  0  0  0  0  0  0  0  0
   -5.4282    2.8333    1.0030 C   0  0  0  0  0  0  0  0  0  0  0  0
   -4.6630    1.6714    0.9678 C   0  0  0  0  0  0  0  0  0  0  0  0
   -3.8415    1.3146   -0.0731 C   0  0  0  0  0  0  0  0  0  0  0  0
   -3.1721    0.0931   -0.2138 N   0  0  0  0  0  0  0  0  0  0  0  0
   -3.8381   -1.1770   -0.1758 C   0  0  0  0  0  0  0  0  0  0  0  0
   -4.7721   -1.6124    0.6924 C   0  0  0  0  0  0  0  0  0  0  0  0
   -5.3618   -2.8756    0.6246 C   0  0  0  0  0  0  0  0  0  0  0  0
   -4.9909   -3.7423   -0.3673 C   0  0  0  0  0  0  0  0  0  0  0  0
   -5.6191   -5.0924   -0.4425 C   0  0  0  0  0  0  0  0  0  0  0  0
   -4.0372   -3.3453   -1.2830 C   0  0  0  0  0  0  0  0  0  0  0  0
   -3.4752   -2.0913   -1.1876 C   0  0  0  0  0  0  0  0  0  0  0  0
   -1.7564    0.0221   -0.2498 C   0  0  0  0  0  0  0  0  0  0  0  0
   -0.9597    0.8349   -0.9545 C   0  0  0  0  0  0  0  0  0  0  0  0
    0.4373    0.6643   -0.9017 C   0  0  0  0  0  0  0  0  0  0  0  0
    1.0087   -0.3170   -0.1438 C   0  0  0  0  0  0  0  0  0  0  0  0
    2.4407   -0.5019   -0.0803 C   0  0  0  0  0  0  0  0  0  0  0  0
    2.9399   -1.7719    0.1123 C   0  0  0  0  0  0  0  0  0  0  0  0
    4.2951   -2.0323    0.1849 C   0  0  0  0  0  0  0  0  0  0  0  0
    5.1622   -0.9736    0.0582 C   0  0  0  0  0  0  0  0  0  0  0  0
    4.6913    0.2954   -0.1335 C   0  0  0  0  0  0  0  0  0  0  0  0
    3.3323    0.5367   -0.2034 C   0  0  0  0  0  0  0  0  0  0  0  0
    5.6719    1.3773   -0.2606 C   0  0  0  0  0  0  0  0  0  0  0  0
    5.2419    2.5526   -0.4378 O   0  0  0  0  0  0  0  0  0  0  0  0
    7.1058    1.1449   -0.1900 C   0  0  0  0  0  0  0  0  0  0  0  0
    8.0150    2.1695   -0.3106 C   0  0  0  0  0  0  0  0  0  0  0  0
    9.3625    1.8810   -0.2342 C   0  0  0  0  0  0  0  0  0  0  0  0
    9.7978    0.5892   -0.0402 C   0  0  0  0  0  0  0  0  0  0  0  0
    8.8851   -0.4453    0.0818 C   0  0  0  0  0  0  0  0  0  0  0  0
    7.5377   -0.1592    0.0057 C   0  0  0  0  0  0  0  0  0  0  0  0
    6.5953   -1.2773    0.1389 C   0  0  0  0  0  0  0  0  0  0  0  0
    7.0115   -2.4511    0.3158 O   0  0  0  0  0  0  0  0  0  0  0  0
    0.1617   -1.1324    0.5662 C   0  0  0  0  0  0  0  0  0  0  0  0
   -1.1969   -0.9895    0.5332 C   0  0  0  0  0  0  0  0  0  0  0  0
   -3.8153    2.2174   -1.1342 C   0  0  0  0  0  0  0  0  0  0  0  0
   -4.5749    3.3954   -1.1219 C   0  0  0  0  0  0  0  0  0  0  0  0
   -7.2670    4.6302   -0.1227 H   0  0  0  0  0  0  0  0  0  0  0  0
   -5.9639    5.5329   -0.9307 H   0  0  0  0  0  0  0  0  0  0  0  0
   -6.0380    5.5163    0.9100 H   0  0  0  0  0  0  0  0  0  0  0  0
   -6.0630    3.0756    1.8420 H   0  0  0  0  0  0  0  0  0  0  0  0
   -4.7172    1.0555    1.8610 H   0  0  0  0  0  0  0  0  0  0  0  0
   -5.0852   -0.9693    1.4890 H   0  0  0  0  0  0  0  0  0  0  0  0
   -6.1050   -3.1578    1.3544 H   0  0  0  0  0  0  0  0  0  0  0  0
   -6.7123   -4.9834   -0.2172 H   0  0  0  0  0  0  0  0  0  0  0  0
   -5.5918   -5.4696   -1.5004 H   0  0  0  0  0  0  0  0  0  0  0  0
   -5.1446   -5.8115    0.2466 H   0  0  0  0  0  0  0  0  0  0  0  0
   -3.7160   -4.0108   -2.0894 H   0  0  0  0  0  0  0  0  0  0  0  0
   -2.7239   -1.7511   -1.8920 H   0  0  0  0  0  0  0  0  0  0  0  0
   -1.3302    1.6244   -1.5605 H   0  0  0  0  0  0  0  0  0  0  0  0
    1.0846    1.3125   -1.4644 H   0  0  0  0  0  0  0  0  0  0  0  0
    2.2867   -2.6436    0.2184 H   0  0  0  0  0  0  0  0  0  0  0  0
    4.6540   -3.0387    0.3365 H   0  0  0  0  0  0  0  0  0  0  0  0
    2.9935    1.5454   -0.3553 H   0  0  0  0  0  0  0  0  0  0  0  0
    7.6717    3.1805   -0.4623 H   0  0  0  0  0  0  0  0  0  0  0  0
   10.1189    2.6516   -0.3231 H   0  0  0  0  0  0  0  0  0  0  0  0
   10.8523    0.3400    0.0231 H   0  0  0  0  0  0  0  0  0  0  0  0
    9.2152   -1.4770    0.2365 H   0  0  0  0  0  0  0  0  0  0  0  0
    0.5914   -1.9161    1.1733 H   0  0  0  0  0  0  0  0  0  0  0  0
   -1.8208   -1.6440    1.0996 H   0  0  0  0  0  0  0  0  0  0  0  0
   -3.2651    2.0591   -2.0447 H   0  0  0  0  0  0  0  0  0  0  0  0
   -4.5399    4.0913   -1.9614 H   0  0  0  0  0  0  0  0  0  0  0  0
  1  2  1  0
  2  3  2  0
  3  4  1  0
  4  5  2  0
  5  6  1  0
  6  7  1  0
  7  8  2  0
  8  9  1  0
  9 10  2  0
 10 11  1  0
 10 12  1  0
 12 13  2  0
  6 14  1  0
 14 15  2  0
 15 16  1  0
 16 17  2  0
 17 18  1  0
 18 19  2  0
 19 20  1  0
 20 21  2  0
 21 22  1  0
 22 23  2  0
 22 24  1  0
 24 25  2  0
 24 26  1  0
 26 27  2  0
 27 28  1  0
 28 29  2  0
 29 30  1  0
 30 31  2  0
 31 32  1  0
 32 33  2  0
 17 34  1  0
 34 35  2  0
  5 36  1  0
 36 37  2  0
 37  2  1  0
 13  7  1  0
 35 14  1  0
 23 18  1  0
 31 26  1  0
 32 21  1  0
  1 38  1  0
  1 39  1  0
  1 40  1  0
  3 41  1  0
  4 42  1  0
  8 43  1  0
  9 44  1  0
 11 45  1  0
 11 46  1  0
 11 47  1  0
 12 48  1  0
 13 49  1  0
 15 50  1  0
 16 51  1  0
 19 52  1  0
 20 53  1  0
 23 54  1  0
 27 55  1  0
 28 56  1  0
 29 57  1  0
 30 58  1  0
 34 59  1  0
 35 60  1  0
 36 61  1  0
 37 62  1  0
M  END
