
     RDKit          3D

 78 85  0  0  0  0  0  0  0  0999 V2000
    2.1407    3.5112   -1.6907 O   0  0  0  0  0  0  0  0  0  0  0  0
    1.7730    2.3729   -1.2361 C   0  0  0  0  0  0  0  0  0  0  0  0
    0.3397    2.1483   -1.1756 C   0  0  0  0  0  0  0  0  0  0  0  0
   -0.1897    0.8907   -1.2816 C   0  0  0  0  0  0  0  0  0  0  0  0
   -1.5450    0.6713   -1.1704 C   0  0  0  0  0  0  0  0  0  0  0  0
   -2.4709    1.7082   -0.9426 C   0  0  0  0  0  0  0  0  0  0  0  0
   -3.8728    1.3501   -0.8076 C   0  0  0  0  0  0  0  0  0  0  0  0
   -4.2871    0.3499   -0.0023 C   0  0  0  0  0  0  0  0  0  0  0  0
   -3.3252   -0.4093    0.7689 C   0  0  0  0  0  0  0  0  0  0  0  0
   -2.3509    0.2852    1.5255 C   0  0  0  0  0  0  0  0  0  0  0  0
   -1.3963   -0.3370    2.2707 C   0  0  0  0  0  0  0  0  0  0  0  0
   -1.3422   -1.7217    2.3165 C   0  0  0  0  0  0  0  0  0  0  0  0
   -2.2739   -2.4113    1.5929 C   0  0  0  0  0  0  0  0  0  0  0  0
   -3.2583   -1.7741    0.8244 C   0  0  0  0  0  0  0  0  0  0  0  0
   -5.7182    0.1453    0.1550 C   0  0  0  0  0  0  0  0  0  0  0  0
   -6.4149   -1.0068   -0.0800 C   0  0  0  0  0  0  0  0  0  0  0  0
   -7.7945   -1.1084    0.1527 C   0  0  0  0  0  0  0  0  0  0  0  0
   -8.5143   -0.0388    0.6324 C   0  0  0  0  0  0  0  0  0  0  0  0
   -7.8375    1.1415    0.8789 C   0  0  0  0  0  0  0  0  0  0  0  0
   -6.4930    1.2153    0.6450 C   0  0  0  0  0  0  0  0  0  0  0  0
   -4.8752    1.9875   -1.6290 C   0  0  0  0  0  0  0  0  0  0  0  0
   -5.6209    1.1390   -2.4724 C   0  0  0  0  0  0  0  0  0  0  0  0
   -6.6264    1.6123   -3.2697 C   0  0  0  0  0  0  0  0  0  0  0  0
   -6.9150    2.9710   -3.2414 C   0  0  0  0  0  0  0  0  0  0  0  0
   -6.2048    3.8250   -2.4284 C   0  0  0  0  0  0  0  0  0  0  0  0
   -5.1784    3.3107   -1.6204 C   0  0  0  0  0  0  0  0  0  0  0  0
   -1.9319    2.9563   -0.8402 C   0  0  0  0  0  0  0  0  0  0  0  0
   -0.5512    3.1845   -0.9534 C   0  0  0  0  0  0  0  0  0  0  0  0
    2.7999    1.4438   -0.8320 C   0  0  0  0  0  0  0  0  0  0  0  0
    2.5115    0.4789    0.1029 C   0  0  0  0  0  0  0  0  0  0  0  0
    3.5058   -0.3956    0.4829 C   0  0  0  0  0  0  0  0  0  0  0  0
    4.7711   -0.3140   -0.0571 C   0  0  0  0  0  0  0  0  0  0  0  0
    5.7766   -1.2183    0.3738 N   0  0  0  0  0  0  0  0  0  0  0  0
    6.6234   -0.9399    1.4159 C   0  0  0  0  0  0  0  0  0  0  0  0
    6.7094    0.1831    2.2327 C   0  0  0  0  0  0  0  0  0  0  0  0
    7.6685    0.1766    3.2068 C   0  0  0  0  0  0  0  0  0  0  0  0
    8.5310   -0.8811    3.3991 C   0  0  0  0  0  0  0  0  0  0  0  0
    8.4112   -1.9783    2.5644 C   0  0  0  0  0  0  0  0  0  0  0  0
    7.4718   -2.0124    1.5846 C   0  0  0  0  0  0  0  0  0  0  0  0
    7.0900   -2.9302    0.6012 C   0  0  0  0  0  0  0  0  0  0  0  0
    7.5998   -4.1691    0.3184 C   0  0  0  0  0  0  0  0  0  0  0  0
    7.0459   -4.8987   -0.7168 C   0  0  0  0  0  0  0  0  0  0  0  0
    5.9901   -4.3853   -1.4584 C   0  0  0  0  0  0  0  0  0  0  0  0
    5.4743   -3.1473   -1.1822 C   0  0  0  0  0  0  0  0  0  0  0  0
    6.0461   -2.4308   -0.1376 C   0  0  0  0  0  0  0  0  0  0  0  0
    5.0245    0.6601   -0.9878 C   0  0  0  0  0  0  0  0  0  0  0  0
    4.0423    1.5524   -1.3879 C   0  0  0  0  0  0  0  0  0  0  0  0
    0.4949    0.0446   -1.4766 H   0  0  0  0  0  0  0  0  0  0  0  0
   -1.9452   -0.3232   -1.2642 H   0  0  0  0  0  0  0  0  0  0  0  0
   -2.4114    1.3630    1.4868 H   0  0  0  0  0  0  0  0  0  0  0  0
   -0.6566    0.1960    2.8455 H   0  0  0  0  0  0  0  0  0  0  0  0
   -0.5795   -2.2340    2.9102 H   0  0  0  0  0  0  0  0  0  0  0  0
   -2.2497   -3.4873    1.6155 H   0  0  0  0  0  0  0  0  0  0  0  0
   -3.9337   -2.4277    0.2869 H   0  0  0  0  0  0  0  0  0  0  0  0
   -5.9017   -1.8692   -0.4815 H   0  0  0  0  0  0  0  0  0  0  0  0
   -8.2912   -2.0619   -0.0550 H   0  0  0  0  0  0  0  0  0  0  0  0
   -9.5823   -0.1309    0.8078 H   0  0  0  0  0  0  0  0  0  0  0  0
   -8.4070    1.9914    1.2589 H   0  0  0  0  0  0  0  0  0  0  0  0
   -5.9972    2.1479    0.8574 H   0  0  0  0  0  0  0  0  0  0  0  0
   -5.4210    0.0767   -2.5316 H   0  0  0  0  0  0  0  0  0  0  0  0
   -7.2017    0.9737   -3.9160 H   0  0  0  0  0  0  0  0  0  0  0  0
   -7.7082    3.3944   -3.8603 H   0  0  0  0  0  0  0  0  0  0  0  0
   -6.4168    4.9013   -2.3914 H   0  0  0  0  0  0  0  0  0  0  0  0
   -4.6947    4.0477   -1.0045 H   0  0  0  0  0  0  0  0  0  0  0  0
   -2.5519    3.8141   -0.6546 H   0  0  0  0  0  0  0  0  0  0  0  0
   -0.1985    4.2048   -0.8604 H   0  0  0  0  0  0  0  0  0  0  0  0
    1.5361    0.3813    0.5680 H   0  0  0  0  0  0  0  0  0  0  0  0
    3.2340   -1.1480    1.2290 H   0  0  0  0  0  0  0  0  0  0  0  0
    6.0231    1.0064    2.0686 H   0  0  0  0  0  0  0  0  0  0  0  0
    7.7249    1.0716    3.8439 H   0  0  0  0  0  0  0  0  0  0  0  0
    9.2981   -0.8694    4.1900 H   0  0  0  0  0  0  0  0  0  0  0  0
    9.0661   -2.8591    2.6606 H   0  0  0  0  0  0  0  0  0  0  0  0
    8.4325   -4.5402    0.9239 H   0  0  0  0  0  0  0  0  0  0  0  0
    7.4678   -5.8898   -0.9293 H   0  0  0  0  0  0  0  0  0  0  0  0
    5.5513   -4.9492   -2.2696 H   0  0  0  0  0  0  0  0  0  0  0  0
    4.6553   -2.6833   -1.7169 H   0  0  0  0  0  0  0  0  0  0  0  0
    6.0098    0.7841   -1.4603 H   0  0  0  0  0  0  0  0  0  0  0  0
    4.2964    2.3114   -2.1357 H   0  0  0  0  0  0  0  0  0  0  0  0
  1  2  2  0
  2  3  1  0
  3  4  2  0
  4  5  1  0
  5  6  2  0
  6  7  1  0
  7  8  2  3
  8  9  1  0
  9 10  2  0
 10 11  1  0
 11 12  2  0
 12 13  1  0
 13 14  2  0
  8 15  1  0
 15 16  2  0
 16 17  1  0
 17 18  2  0
 18 19  1  0
 19 20  2  0
  7 21  1  0
 21 22  2  0
 22 23  1  0
 23 24  2  0
 24 25  1  0
 25 26  2  0
  6 27  1  0
 27 28  2  0
  2 29  1  0
 29 30  2  0
 30 31  1  0
 31 32  2  0
 32 33  1  0
 33 34  1  0
 34 35  2  0
 35 36  1  0
 36 37  2  0
 37 38  1  0
 38 39  2  0
 39 40  1  0
 40 41  2  0
 41 42  1  0
 42 43  2  0
 43 44  1  0
 44 45  2  0
 32 46  1  0
 46 47  2  0
 28  3  1  0
 47 29  1  0
 14  9  1  0
 20 15  1  0
 26 21  1  0
 45 33  1  0
 39 34  1  0
 45 40  1  0
  4 48  1  0
  5 49  1  0
 10 50  1  0
 11 51  1  0
 12 52  1  0
 13 53  1  0
 14 54  1  0
 16 55  1  0
 17 56  1  0
 18 57  1  0
 19 58  1  0
 20 59  1  0
 22 60  1  0
 23 61  1  0
 24 62  1  0
 25 63  1  0
 26 64  1  0
 27 65  1  0
 28 66  1  0
 30 67  1  0
 31 68  1  0
 35 69  1  0
 36 70  1  0
 37 71  1  0
 38 72  1  0
 41 73  1  0
 42 74  1  0
 43 75  1  0
 44 76  1  0
 46 77  1  0
 47 78  1  0
M  END
