
     RDKit          3D

 47 47  0  0  0  0  0  0  0  0999 V2000
    9.7177    1.0316   -0.9733 C   0  0  0  0  0  0  0  0  0  0  0  0
    8.6069    0.3264   -0.8884 C   0  0  0  0  0  0  0  0  0  0  0  0
    7.9835   -0.1699   -2.1445 C   0  0  0  0  0  0  0  0  0  0  0  0
    6.6764    0.3200   -2.3244 O   0  0  0  0  0  0  0  0  0  0  0  0
    5.6784    0.0475   -1.3835 C   0  0  0  0  0  0  0  0  0  0  0  0
    5.9241   -0.6780   -0.2936 N   0  0  0  0  0  0  0  0  0  0  0  0
    4.9446   -0.9013    0.5562 N   0  0  0  0  0  0  0  0  0  0  0  0
    3.7001   -0.4277    0.3731 C   0  0  0  0  0  0  0  0  0  0  0  0
    2.7454   -0.7155    1.3196 O   0  0  0  0  0  0  0  0  0  0  0  0
    1.4074   -0.3061    1.2867 C   0  0  0  0  0  0  0  0  0  0  0  0
    0.7309   -0.8437    0.0793 C   0  0  0  0  0  0  0  0  0  0  0  0
   -0.7239   -0.4586   -0.0737 C   0  0  0  0  0  0  0  0  0  0  0  0
   -1.1646   -1.0459   -1.2480 F   0  0  0  0  0  0  0  0  0  0  0  0
   -0.7281    0.9088   -0.2565 F   0  0  0  0  0  0  0  0  0  0  0  0
   -1.5591   -0.9600    1.0352 C   0  0  0  0  0  0  0  0  0  0  0  0
   -1.2648   -0.5188    2.2859 F   0  0  0  0  0  0  0  0  0  0  0  0
   -1.3012   -2.3626    1.0978 F   0  0  0  0  0  0  0  0  0  0  0  0
   -3.0617   -0.8923    0.8266 C   0  0  0  0  0  0  0  0  0  0  0  0
   -3.6156   -1.4233    2.0008 F   0  0  0  0  0  0  0  0  0  0  0  0
   -3.4208   -1.7836   -0.1887 F   0  0  0  0  0  0  0  0  0  0  0  0
   -3.6117    0.4663    0.6738 C   0  0  0  0  0  0  0  0  0  0  0  0
   -3.1639    1.1908   -0.4062 F   0  0  0  0  0  0  0  0  0  0  0  0
   -3.0931    1.2058    1.7949 F   0  0  0  0  0  0  0  0  0  0  0  0
   -5.0889    0.6594    0.7956 C   0  0  0  0  0  0  0  0  0  0  0  0
   -5.2070    2.0817    0.6076 F   0  0  0  0  0  0  0  0  0  0  0  0
   -5.5646    0.4359    2.0584 F   0  0  0  0  0  0  0  0  0  0  0  0
   -5.9409    0.0997   -0.2768 C   0  0  0  0  0  0  0  0  0  0  0  0
   -5.6074    0.6879   -1.4917 F   0  0  0  0  0  0  0  0  0  0  0  0
   -5.7391   -1.2700   -0.4933 F   0  0  0  0  0  0  0  0  0  0  0  0
   -7.3961    0.2138    0.0509 C   0  0  0  0  0  0  0  0  0  0  0  0
   -8.1028   -0.3359   -1.0209 F   0  0  0  0  0  0  0  0  0  0  0  0
   -7.5990   -0.6955    1.1167 F   0  0  0  0  0  0  0  0  0  0  0  0
   -7.9383    1.5394    0.4158 C   0  0  0  0  0  0  0  0  0  0  0  0
   -7.3919    2.0802    1.5357 F   0  0  0  0  0  0  0  0  0  0  0  0
   -7.9227    2.4343   -0.6566 F   0  0  0  0  0  0  0  0  0  0  0  0
   -9.3130    1.3598    0.6712 F   0  0  0  0  0  0  0  0  0  0  0  0
    3.4634    0.2999   -0.7249 N   0  0  0  0  0  0  0  0  0  0  0  0
    4.4481    0.5308   -1.5899 N   0  0  0  0  0  0  0  0  0  0  0  0
   10.1745    1.3958   -0.0471 H   0  0  0  0  0  0  0  0  0  0  0  0
   10.1813    1.2560   -1.9136 H   0  0  0  0  0  0  0  0  0  0  0  0
    8.1448    0.1046    0.0732 H   0  0  0  0  0  0  0  0  0  0  0  0
    7.9396   -1.2772   -2.0561 H   0  0  0  0  0  0  0  0  0  0  0  0
    8.6030    0.0623   -3.0120 H   0  0  0  0  0  0  0  0  0  0  0  0
    1.3782    0.8170    1.3168 H   0  0  0  0  0  0  0  0  0  0  0  0
    0.9676   -0.6237    2.2566 H   0  0  0  0  0  0  0  0  0  0  0  0
    1.2490   -0.4727   -0.8250 H   0  0  0  0  0  0  0  0  0  0  0  0
    0.8554   -1.9478    0.0602 H   0  0  0  0  0  0  0  0  0  0  0  0
  1  2  2  3
  2  3  1  0
  3  4  1  0
  4  5  1  0
  5  6  2  0
  6  7  1  0
  7  8  2  0
  8  9  1  0
  9 10  1  0
 10 11  1  0
 11 12  1  0
 12 13  1  0
 12 14  1  0
 12 15  1  0
 15 16  1  0
 15 17  1  0
 15 18  1  0
 18 19  1  0
 18 20  1  0
 18 21  1  0
 21 22  1  0
 21 23  1  0
 21 24  1  0
 24 25  1  0
 24 26  1  0
 24 27  1  0
 27 28  1  0
 27 29  1  0
 27 30  1  0
 30 31  1  0
 30 32  1  0
 30 33  1  0
 33 34  1  0
 33 35  1  0
 33 36  1  0
  8 37  1  0
 37 38  2  0
 38  5  1  0
  1 39  1  0
  1 40  1  0
  2 41  1  0
  3 42  1  0
  3 43  1  0
 10 44  1  0
 10 45  1  0
 11 46  1  0
 11 47  1  0
M  END
