
     RDKit          3D

 28 31  0  0  0  0  0  0  0  0999 V2000
   -3.2163   -2.4578    1.0369 O   0  0  0  0  0  0  0  0  0  0  0  0
   -2.8418   -1.2890    0.7180 C   0  0  0  0  0  0  0  0  0  0  0  0
   -3.8025   -0.1721    0.5368 C   0  0  0  0  0  0  0  0  0  0  0  0
   -3.2693    0.7151   -0.5628 C   0  0  0  0  0  0  0  0  0  0  0  0
   -1.9703    1.3391   -0.0390 C   0  0  0  0  0  0  0  0  0  0  0  0
   -1.0025    0.2116    0.1634 C   0  0  0  0  0  0  0  0  0  0  0  0
   -1.4047   -1.0568    0.5271 C   0  0  0  0  0  0  0  0  0  0  0  0
   -0.3128   -1.8509    0.6321 N   0  0  0  0  0  0  0  0  0  0  0  0
    0.8128   -1.1519    0.3492 C   0  0  0  0  0  0  0  0  0  0  0  0
    2.1420   -1.5178    0.3223 C   0  0  0  0  0  0  0  0  0  0  0  0
    3.0710   -0.5462   -0.0130 C   0  0  0  0  0  0  0  0  0  0  0  0
    2.6474    0.7329   -0.3040 C   0  0  0  0  0  0  0  0  0  0  0  0
    1.3092    1.0781   -0.2709 C   0  0  0  0  0  0  0  0  0  0  0  0
    0.3800    0.1257    0.0594 C   0  0  0  0  0  0  0  0  0  0  0  0
    3.7640    1.5017   -0.6039 O   0  0  0  0  0  0  0  0  0  0  0  0
    4.8824    0.7797   -0.0884 C   0  0  0  0  0  0  0  0  0  0  0  0
    4.4739   -0.5717   -0.1346 O   0  0  0  0  0  0  0  0  0  0  0  0
   -3.8993    0.4567    1.4406 H   0  0  0  0  0  0  0  0  0  0  0  0
   -4.8122   -0.5532    0.2170 H   0  0  0  0  0  0  0  0  0  0  0  0
   -3.9856    1.5107   -0.8490 H   0  0  0  0  0  0  0  0  0  0  0  0
   -3.0304    0.0581   -1.4296 H   0  0  0  0  0  0  0  0  0  0  0  0
   -1.6273    2.0140   -0.8623 H   0  0  0  0  0  0  0  0  0  0  0  0
   -2.1865    1.8815    0.8851 H   0  0  0  0  0  0  0  0  0  0  0  0
   -0.3547   -2.8584    0.8957 H   0  0  0  0  0  0  0  0  0  0  0  0
    2.4874   -2.5162    0.5481 H   0  0  0  0  0  0  0  0  0  0  0  0
    0.9585    2.0773   -0.4965 H   0  0  0  0  0  0  0  0  0  0  0  0
    5.0120    1.0793    0.9737 H   0  0  0  0  0  0  0  0  0  0  0  0
    5.7753    0.9804   -0.7105 H   0  0  0  0  0  0  0  0  0  0  0  0
  1  2  2  0
  2  3  1  0
  3  4  1  0
  4  5  1  0
  5  6  1  0
  6  7  2  0
  7  8  1  0
  8  9  1  0
  9 10  2  0
 10 11  1  0
 11 12  2  0
 12 13  1  0
 13 14  2  0
 12 15  1  0
 15 16  1  0
 16 17  1  0
  7  2  1  0
 14  9  1  0
 14  6  1  0
 17 11  1  0
  3 18  1  0
  3 19  1  0
  4 20  1  0
  4 21  1  0
  5 22  1  0
  5 23  1  0
  8 24  1  0
 10 25  1  0
 13 26  1  0
 16 27  1  0
 16 28  1  0
M  END
