
     RDKit          3D

 70 75  0  0  0  0  0  0  0  0999 V2000
    0.0769   -1.2398   -1.6693 C   0  0  0  0  0  0  0  0  0  0  0  0
   -0.7225   -0.2522   -0.8890 C   0  0  0  0  0  0  0  0  0  0  0  0
   -2.0940   -0.2401   -0.9223 C   0  0  0  0  0  0  0  0  0  0  0  0
   -2.8265    0.6634   -0.1970 C   0  0  0  0  0  0  0  0  0  0  0  0
   -4.2954    0.6124   -0.2331 C   0  0  0  0  0  0  0  0  0  0  0  0
   -5.0958    1.6719   -0.4829 C   0  0  0  0  0  0  0  0  0  0  0  0
   -6.4698    1.4940   -0.4038 C   0  0  0  0  0  0  0  0  0  0  0  0
   -7.0460    0.3030   -0.0887 C   0  0  0  0  0  0  0  0  0  0  0  0
   -8.4821    0.0355    0.0597 C   0  0  0  0  0  0  0  0  0  0  0  0
   -9.3812    1.1508   -0.3670 C   0  0  0  0  0  0  0  0  0  0  0  0
   -8.8844   -1.2534   -0.6024 C   0  0  0  0  0  0  0  0  0  0  0  0
   -8.7195   -0.1780    1.5710 C   0  0  0  0  0  0  0  0  0  0  0  0
   -6.1894   -0.7641    0.1597 C   0  0  0  0  0  0  0  0  0  0  0  0
   -4.8198   -0.6246    0.0903 C   0  0  0  0  0  0  0  0  0  0  0  0
   -2.1687    1.6230    0.6079 C   0  0  0  0  0  0  0  0  0  0  0  0
   -2.8028    2.5324    1.3548 N   0  0  0  0  0  0  0  0  0  0  0  0
   -1.5693    3.3786    2.1042 S   0  0  0  0  0  0  0  0  0  0  0  0
   -0.2639    2.5590    1.4531 N   0  0  0  0  0  0  0  0  0  0  0  0
   -0.8268    1.6377    0.6595 C   0  0  0  0  0  0  0  0  0  0  0  0
   -0.0964    0.6966   -0.0914 C   0  0  0  0  0  0  0  0  0  0  0  0
    1.3460    0.6122   -0.0533 C   0  0  0  0  0  0  0  0  0  0  0  0
    1.9244   -0.0811    0.9982 C   0  0  0  0  0  0  0  0  0  0  0  0
    3.3028   -0.2587    1.0560 C   0  0  0  0  0  0  0  0  0  0  0  0
    4.1359    0.2361    0.0899 C   0  0  0  0  0  0  0  0  0  0  0  0
    5.4907   -0.0943    0.0717 N   0  0  0  0  0  0  0  0  0  0  0  0
    6.5875    0.8002    0.0411 C   0  0  0  0  0  0  0  0  0  0  0  0
    7.6481    0.5275    0.9284 C   0  0  0  0  0  0  0  0  0  0  0  0
    8.7332    1.3518    1.0271 C   0  0  0  0  0  0  0  0  0  0  0  0
    8.8342    2.4843    0.2588 C   0  0  0  0  0  0  0  0  0  0  0  0
    7.8251    2.7797   -0.6149 C   0  0  0  0  0  0  0  0  0  0  0  0
    6.7081    1.9167   -0.7031 C   0  0  0  0  0  0  0  0  0  0  0  0
    5.8568   -1.4950   -0.0562 C   0  0  0  0  0  0  0  0  0  0  0  0
    5.3379   -2.5333    0.6307 C   0  0  0  0  0  0  0  0  0  0  0  0
    5.7294   -3.8330    0.3157 C   0  0  0  0  0  0  0  0  0  0  0  0
    6.6197   -4.0824   -0.6636 C   0  0  0  0  0  0  0  0  0  0  0  0
    7.1719   -3.0091   -1.3880 C   0  0  0  0  0  0  0  0  0  0  0  0
    6.7958   -1.7413   -1.0876 C   0  0  0  0  0  0  0  0  0  0  0  0
    3.5593    0.9305   -0.9566 C   0  0  0  0  0  0  0  0  0  0  0  0
    2.1637    1.1096   -1.0110 C   0  0  0  0  0  0  0  0  0  0  0  0
   -0.2581   -1.1731   -2.7020 H   0  0  0  0  0  0  0  0  0  0  0  0
   -0.1971   -2.2532   -1.2780 H   0  0  0  0  0  0  0  0  0  0  0  0
    1.1619   -1.0395   -1.5277 H   0  0  0  0  0  0  0  0  0  0  0  0
   -2.6036   -0.9696   -1.5459 H   0  0  0  0  0  0  0  0  0  0  0  0
   -4.6622    2.6173   -0.7462 H   0  0  0  0  0  0  0  0  0  0  0  0
   -7.1214    2.3497   -0.5973 H   0  0  0  0  0  0  0  0  0  0  0  0
  -10.4435    0.7781   -0.3238 H   0  0  0  0  0  0  0  0  0  0  0  0
   -9.2357    1.4599   -1.4160 H   0  0  0  0  0  0  0  0  0  0  0  0
   -9.3491    2.0126    0.3328 H   0  0  0  0  0  0  0  0  0  0  0  0
  -10.0190   -1.2614   -0.6189 H   0  0  0  0  0  0  0  0  0  0  0  0
   -8.5678   -1.2557   -1.6647 H   0  0  0  0  0  0  0  0  0  0  0  0
   -8.5165   -2.1642   -0.0830 H   0  0  0  0  0  0  0  0  0  0  0  0
   -8.3660    0.7727    2.0270 H   0  0  0  0  0  0  0  0  0  0  0  0
   -9.7429   -0.4222    1.7893 H   0  0  0  0  0  0  0  0  0  0  0  0
   -7.9771   -0.9587    1.8988 H   0  0  0  0  0  0  0  0  0  0  0  0
   -6.6052   -1.7531    0.4140 H   0  0  0  0  0  0  0  0  0  0  0  0
   -4.1553   -1.4772    0.2898 H   0  0  0  0  0  0  0  0  0  0  0  0
    1.3573   -0.5025    1.8044 H   0  0  0  0  0  0  0  0  0  0  0  0
    3.7086   -0.7539    1.9339 H   0  0  0  0  0  0  0  0  0  0  0  0
    7.5865   -0.3507    1.5494 H   0  0  0  0  0  0  0  0  0  0  0  0
    9.5730    1.1756    1.7051 H   0  0  0  0  0  0  0  0  0  0  0  0
    9.6781    3.1757    0.3061 H   0  0  0  0  0  0  0  0  0  0  0  0
    7.8461    3.6581   -1.2405 H   0  0  0  0  0  0  0  0  0  0  0  0
    5.9509    2.1808   -1.3947 H   0  0  0  0  0  0  0  0  0  0  0  0
    4.6511   -2.3822    1.4159 H   0  0  0  0  0  0  0  0  0  0  0  0
    5.3106   -4.6460    0.8582 H   0  0  0  0  0  0  0  0  0  0  0  0
    6.9439   -5.0813   -0.9465 H   0  0  0  0  0  0  0  0  0  0  0  0
    7.8784   -3.2515   -2.1816 H   0  0  0  0  0  0  0  0  0  0  0  0
    7.2131   -0.9085   -1.6393 H   0  0  0  0  0  0  0  0  0  0  0  0
    4.0876    1.3419   -1.7920 H   0  0  0  0  0  0  0  0  0  0  0  0
    1.7805    1.6558   -1.8453 H   0  0  0  0  0  0  0  0  0  0  0  0
  1  2  1  0
  2  3  1  0
  3  4  2  0
  4  5  1  0
  5  6  2  0
  6  7  1  0
  7  8  2  0
  8  9  1  0
  9 10  1  0
  9 11  1  0
  9 12  1  0
  8 13  1  0
 13 14  2  0
  4 15  1  0
 15 16  2  0
 16 17  1  0
 17 18  1  0
 18 19  2  0
 19 20  1  0
 20 21  1  0
 21 22  2  0
 22 23  1  0
 23 24  2  0
 24 25  1  0
 25 26  1  0
 26 27  2  0
 27 28  1  0
 28 29  2  0
 29 30  1  0
 30 31  2  0
 25 32  1  0
 32 33  2  0
 33 34  1  0
 34 35  2  0
 35 36  1  0
 36 37  2  0
 24 38  1  0
 38 39  2  0
 20  2  2  0
 39 21  1  0
 14  5  1  0
 19 15  1  0
 31 26  1  0
 37 32  1  0
  1 40  1  0
  1 41  1  0
  1 42  1  0
  3 43  1  0
  6 44  1  0
  7 45  1  0
 10 46  1  0
 10 47  1  0
 10 48  1  0
 11 49  1  0
 11 50  1  0
 11 51  1  0
 12 52  1  0
 12 53  1  0
 12 54  1  0
 13 55  1  0
 14 56  1  0
 22 57  1  0
 23 58  1  0
 27 59  1  0
 28 60  1  0
 29 61  1  0
 30 62  1  0
 31 63  1  0
 33 64  1  0
 34 65  1  0
 35 66  1  0
 36 67  1  0
 37 68  1  0
 38 69  1  0
 39 70  1  0
M  END
