
     RDKit          3D

 41 43  0  0  0  0  0  0  0  0999 V2000
   -1.5953   -2.0368    0.7871 C   0  0  0  0  0  0  0  0  0  0  0  0
   -1.6402   -0.7443    0.0086 C   0  0  0  0  0  0  0  0  0  0  0  0
   -2.7465   -0.9558   -1.0457 C   0  0  0  0  0  0  0  0  0  0  0  0
   -2.1793    0.3074    0.9294 C   0  0  0  0  0  0  0  0  0  0  0  0
   -0.4227   -0.4116   -0.7552 C   0  0  0  0  0  0  0  0  0  0  0  0
   -0.6587    0.8752   -1.4483 N   0  0  0  0  0  0  0  0  0  0  0  0
   -0.5489    2.1008   -0.7412 C   0  0  0  0  0  0  0  0  0  0  0  0
   -1.2332    3.2493   -1.1677 C   0  0  0  0  0  0  0  0  0  0  0  0
   -1.1014    4.4235   -0.4582 C   0  0  0  0  0  0  0  0  0  0  0  0
   -0.2998    4.4751    0.6702 C   0  0  0  0  0  0  0  0  0  0  0  0
    0.3705    3.3231    1.0754 C   0  0  0  0  0  0  0  0  0  0  0  0
    0.2524    2.1385    0.3786 C   0  0  0  0  0  0  0  0  0  0  0  0
    0.9384    0.9112    0.7584 C   0  0  0  0  0  0  0  0  0  0  0  0
    1.6664    0.9084    1.7720 O   0  0  0  0  0  0  0  0  0  0  0  0
    0.8061   -0.3090    0.0035 N   0  0  0  0  0  0  0  0  0  0  0  0
    1.8454   -1.2606    0.0211 C   0  0  0  0  0  0  0  0  0  0  0  0
    1.5994   -2.5571   -0.3637 C   0  0  0  0  0  0  0  0  0  0  0  0
    2.5880   -3.5348   -0.3696 C   0  0  0  0  0  0  0  0  0  0  0  0
    3.8713   -3.2373    0.0140 C   0  0  0  0  0  0  0  0  0  0  0  0
    4.1353   -1.9440    0.4007 C   0  0  0  0  0  0  0  0  0  0  0  0
    3.1387   -0.9895    0.3997 C   0  0  0  0  0  0  0  0  0  0  0  0
   -0.7792   -2.0937    1.5217 H   0  0  0  0  0  0  0  0  0  0  0  0
   -1.6363   -2.9035    0.0908 H   0  0  0  0  0  0  0  0  0  0  0  0
   -2.5769   -2.0836    1.3429 H   0  0  0  0  0  0  0  0  0  0  0  0
   -3.5658   -1.5208   -0.5767 H   0  0  0  0  0  0  0  0  0  0  0  0
   -3.1527    0.0340   -1.3618 H   0  0  0  0  0  0  0  0  0  0  0  0
   -2.2704   -1.5025   -1.8731 H   0  0  0  0  0  0  0  0  0  0  0  0
   -2.5142    1.1963    0.3845 H   0  0  0  0  0  0  0  0  0  0  0  0
   -1.5795    0.4897    1.8321 H   0  0  0  0  0  0  0  0  0  0  0  0
   -3.1424   -0.1401    1.3407 H   0  0  0  0  0  0  0  0  0  0  0  0
   -0.2618   -1.1655   -1.5319 H   0  0  0  0  0  0  0  0  0  0  0  0
   -0.9054    0.8861   -2.4527 H   0  0  0  0  0  0  0  0  0  0  0  0
   -1.8453    3.2015   -2.0369 H   0  0  0  0  0  0  0  0  0  0  0  0
   -1.6204    5.3217   -0.7658 H   0  0  0  0  0  0  0  0  0  0  0  0
   -0.2101    5.4063    1.2168 H   0  0  0  0  0  0  0  0  0  0  0  0
    0.9967    3.3455    1.9500 H   0  0  0  0  0  0  0  0  0  0  0  0
    0.6368   -2.9044   -0.6938 H   0  0  0  0  0  0  0  0  0  0  0  0
    2.3916   -4.5578   -0.6761 H   0  0  0  0  0  0  0  0  0  0  0  0
    4.6550   -4.0077    0.0099 H   0  0  0  0  0  0  0  0  0  0  0  0
    5.1624   -1.7336    0.7014 H   0  0  0  0  0  0  0  0  0  0  0  0
    3.4318    0.0002    0.7091 H   0  0  0  0  0  0  0  0  0  0  0  0
  1  2  1  0
  2  3  1  0
  2  4  1  0
  2  5  1  0
  5  6  1  0
  6  7  1  0
  7  8  2  0
  8  9  1  0
  9 10  2  0
 10 11  1  0
 11 12  2  0
 12 13  1  0
 13 14  2  0
 13 15  1  0
 15 16  1  0
 16 17  2  0
 17 18  1  0
 18 19  2  0
 19 20  1  0
 20 21  2  0
 15  5  1  0
 21 16  1  0
 12  7  1  0
  1 22  1  0
  1 23  1  0
  1 24  1  0
  3 25  1  0
  3 26  1  0
  3 27  1  0
  4 28  1  0
  4 29  1  0
  4 30  1  0
  5 31  1  0
  6 32  1  0
  8 33  1  0
  9 34  1  0
 10 35  1  0
 11 36  1  0
 17 37  1  0
 18 38  1  0
 19 39  1  0
 20 40  1  0
 21 41  1  0
M  END
