
     RDKit          3D

 37 40  0  0  0  0  0  0  0  0999 V2000
   -7.6860   -0.8499    1.9065 C   0  0  0  0  0  0  0  0  0  0  0  0
   -6.3609   -0.4659    2.2214 O   0  0  0  0  0  0  0  0  0  0  0  0
   -5.4001   -0.6592    1.2226 C   0  0  0  0  0  0  0  0  0  0  0  0
   -5.6835   -1.1765    0.0232 N   0  0  0  0  0  0  0  0  0  0  0  0
   -4.6858   -1.3224   -0.8714 C   0  0  0  0  0  0  0  0  0  0  0  0
   -4.9790   -1.9952   -2.4702 Cl  0  0  0  0  0  0  0  0  0  0  0  0
   -3.4414   -0.9451   -0.5321 N   0  0  0  0  0  0  0  0  0  0  0  0
   -3.1019   -0.4237    0.6489 C   0  0  0  0  0  0  0  0  0  0  0  0
   -1.8155   -0.0132    1.0529 N   0  0  0  0  0  0  0  0  0  0  0  0
   -0.6222   -0.0602    0.3153 C   0  0  0  0  0  0  0  0  0  0  0  0
   -0.5124   -0.5300   -0.9636 C   0  0  0  0  0  0  0  0  0  0  0  0
    0.6987   -0.5629   -1.6735 C   0  0  0  0  0  0  0  0  0  0  0  0
    1.8451   -0.1091   -1.0843 C   0  0  0  0  0  0  0  0  0  0  0  0
    3.0431   -0.1427   -1.7892 C   0  0  0  0  0  0  0  0  0  0  0  0
    4.1749    0.3248   -1.1566 C   0  0  0  0  0  0  0  0  0  0  0  0
    5.3835    0.3071   -1.8258 C   0  0  0  0  0  0  0  0  0  0  0  0
    6.5660    0.7633   -1.2486 C   0  0  0  0  0  0  0  0  0  0  0  0
    6.5115    1.2511    0.0481 C   0  0  0  0  0  0  0  0  0  0  0  0
    5.3103    1.2732    0.7251 C   0  0  0  0  0  0  0  0  0  0  0  0
    4.1414    0.8137    0.1323 C   0  0  0  0  0  0  0  0  0  0  0  0
    2.9388    0.8282    0.7899 C   0  0  0  0  0  0  0  0  0  0  0  0
    1.7524    0.3679    0.2043 C   0  0  0  0  0  0  0  0  0  0  0  0
    0.5693    0.4000    0.8979 C   0  0  0  0  0  0  0  0  0  0  0  0
   -4.1473   -0.2935    1.5273 N   0  0  0  0  0  0  0  0  0  0  0  0
   -7.9988   -0.1752    1.0579 H   0  0  0  0  0  0  0  0  0  0  0  0
   -7.7920   -1.9099    1.6586 H   0  0  0  0  0  0  0  0  0  0  0  0
   -8.3122   -0.5504    2.7875 H   0  0  0  0  0  0  0  0  0  0  0  0
   -1.7362    0.3867    2.0521 H   0  0  0  0  0  0  0  0  0  0  0  0
   -1.4116   -0.9004   -1.4633 H   0  0  0  0  0  0  0  0  0  0  0  0
    0.7065   -0.9445   -2.6702 H   0  0  0  0  0  0  0  0  0  0  0  0
    3.0704   -0.5308   -2.8128 H   0  0  0  0  0  0  0  0  0  0  0  0
    5.3751   -0.0838   -2.8381 H   0  0  0  0  0  0  0  0  0  0  0  0
    7.4974    0.7303   -1.8147 H   0  0  0  0  0  0  0  0  0  0  0  0
    7.4274    1.6063    0.4999 H   0  0  0  0  0  0  0  0  0  0  0  0
    5.2309    1.6463    1.7363 H   0  0  0  0  0  0  0  0  0  0  0  0
    2.8800    1.2068    1.8051 H   0  0  0  0  0  0  0  0  0  0  0  0
    0.5640    0.7847    1.9011 H   0  0  0  0  0  0  0  0  0  0  0  0
  1  2  1  0
  2  3  1  0
  3  4  2  0
  4  5  1  0
  5  6  1  0
  5  7  2  0
  7  8  1  0
  8  9  1  0
  9 10  1  0
 10 11  2  0
 11 12  1  0
 12 13  2  0
 13 14  1  0
 14 15  2  0
 15 16  1  0
 16 17  2  0
 17 18  1  0
 18 19  2  0
 19 20  1  0
 20 21  2  0
 21 22  1  0
 22 23  2  0
  8 24  2  0
 24  3  1  0
 23 10  1  0
 22 13  1  0
 20 15  1  0
  1 25  1  0
  1 26  1  0
  1 27  1  0
  9 28  1  0
 11 29  1  0
 12 30  1  0
 14 31  1  0
 16 32  1  0
 17 33  1  0
 18 34  1  0
 19 35  1  0
 21 36  1  0
 23 37  1  0
M  END
