
     RDKit          3D

 51 55  0  0  0  0  0  0  0  0999 V2000
   -5.9357    2.4203    3.3236 C   0  0  0  0  0  0  0  0  0  0  0  0
   -4.7296    1.6570    2.8275 C   0  0  0  0  0  0  0  0  0  0  0  0
   -3.6457    2.3289    2.3566 C   0  0  0  0  0  0  0  0  0  0  0  0
   -2.5457    1.5960    1.9087 C   0  0  0  0  0  0  0  0  0  0  0  0
   -2.4882    0.2167    1.9216 C   0  0  0  0  0  0  0  0  0  0  0  0
   -1.3576   -0.4923    1.5082 N   0  0  0  0  0  0  0  0  0  0  0  0
   -0.6707   -1.3602    2.2618 C   0  0  0  0  0  0  0  0  0  0  0  0
   -0.9363   -1.7896    3.6021 C   0  0  0  0  0  0  0  0  0  0  0  0
    0.0083   -2.6801    4.0370 C   0  0  0  0  0  0  0  0  0  0  0  0
    1.0644   -3.1453    3.3964 C   0  0  0  0  0  0  0  0  0  0  0  0
    1.2962   -2.7071    2.0843 C   0  0  0  0  0  0  0  0  0  0  0  0
    0.3940   -1.7993    1.5273 C   0  0  0  0  0  0  0  0  0  0  0  0
    0.3468   -1.1838    0.3040 C   0  0  0  0  0  0  0  0  0  0  0  0
    1.1163   -1.2102   -0.8388 C   0  0  0  0  0  0  0  0  0  0  0  0
    0.8690   -0.4849   -1.9955 C   0  0  0  0  0  0  0  0  0  0  0  0
    1.7754   -0.4616   -3.1165 C   0  0  0  0  0  0  0  0  0  0  0  0
    1.7304   -1.0644   -4.2201 C   0  0  0  0  0  0  0  0  0  0  0  0
    1.0483   -1.9060   -4.9949 C   0  0  0  0  0  0  0  0  0  0  0  0
    0.4067   -2.6824   -5.7145 N   0  0  0  0  0  0  0  0  0  0  0  0
    3.3154   -1.1203   -4.6711 C   0  0  0  0  0  0  0  0  0  0  0  0
    4.4771   -1.1460   -4.9859 N   0  0  0  0  0  0  0  0  0  0  0  0
    2.9273    0.5165   -2.9589 C   0  0  0  0  0  0  0  0  0  0  0  0
    3.1433    1.4297   -4.0242 C   0  0  0  0  0  0  0  0  0  0  0  0
    4.2432    2.2580   -4.0417 C   0  0  0  0  0  0  0  0  0  0  0  0
    5.1788    2.1855   -2.9495 C   0  0  0  0  0  0  0  0  0  0  0  0
    4.9268    1.3264   -2.0025 C   0  0  0  0  0  0  0  0  0  0  0  0
    3.8081    0.4666   -1.9562 C   0  0  0  0  0  0  0  0  0  0  0  0
   -0.2589    0.3221   -1.9575 C   0  0  0  0  0  0  0  0  0  0  0  0
   -1.0586    0.3880   -0.8497 C   0  0  0  0  0  0  0  0  0  0  0  0
   -0.7751   -0.3448    0.2665 C   0  0  0  0  0  0  0  0  0  0  0  0
   -3.6047   -0.4560    2.4083 C   0  0  0  0  0  0  0  0  0  0  0  0
   -4.6836    0.2871    2.8408 C   0  0  0  0  0  0  0  0  0  0  0  0
   -5.5728    3.4177    3.6067 H   0  0  0  0  0  0  0  0  0  0  0  0
   -6.6041    2.5320    2.4206 H   0  0  0  0  0  0  0  0  0  0  0  0
   -6.4417    1.8953    4.1314 H   0  0  0  0  0  0  0  0  0  0  0  0
   -3.6050    3.3959    2.3054 H   0  0  0  0  0  0  0  0  0  0  0  0
   -1.6887    2.2233    1.5613 H   0  0  0  0  0  0  0  0  0  0  0  0
   -1.7854   -1.4137    4.0944 H   0  0  0  0  0  0  0  0  0  0  0  0
   -0.1578   -3.0404    5.1128 H   0  0  0  0  0  0  0  0  0  0  0  0
    1.7782   -3.8496    3.8076 H   0  0  0  0  0  0  0  0  0  0  0  0
    2.1239   -3.0221    1.4752 H   0  0  0  0  0  0  0  0  0  0  0  0
    1.9925   -1.8651   -0.8499 H   0  0  0  0  0  0  0  0  0  0  0  0
    2.3743    1.4414   -4.7789 H   0  0  0  0  0  0  0  0  0  0  0  0
    4.4511    2.9430   -4.8213 H   0  0  0  0  0  0  0  0  0  0  0  0
    6.0425    2.8738   -3.0172 H   0  0  0  0  0  0  0  0  0  0  0  0
    5.6527    1.1879   -1.1642 H   0  0  0  0  0  0  0  0  0  0  0  0
    3.6727   -0.2206   -1.1049 H   0  0  0  0  0  0  0  0  0  0  0  0
   -0.4861    0.9032   -2.8396 H   0  0  0  0  0  0  0  0  0  0  0  0
   -1.9206    1.0379   -0.8870 H   0  0  0  0  0  0  0  0  0  0  0  0
   -3.6277   -1.5511    2.4428 H   0  0  0  0  0  0  0  0  0  0  0  0
   -5.5836   -0.2534    3.2076 H   0  0  0  0  0  0  0  0  0  0  0  0
  1  2  1  0
  2  3  2  0
  3  4  1  0
  4  5  2  0
  5  6  1  0
  6  7  1  0
  7  8  2  0
  8  9  1  0
  9 10  2  0
 10 11  1  0
 11 12  2  0
 12 13  1  0
 13 14  2  0
 14 15  1  0
 15 16  1  0
 16 17  2  3
 17 18  1  0
 18 19  3  0
 17 20  1  0
 20 21  3  0
 16 22  1  0
 22 23  2  0
 23 24  1  0
 24 25  2  0
 25 26  1  0
 26 27  2  0
 15 28  2  0
 28 29  1  0
 29 30  2  0
  5 31  1  0
 31 32  2  0
 32  2  1  0
 30  6  1  0
 12  7  1  0
 30 13  1  0
 27 22  1  0
  1 33  1  0
  1 34  1  0
  1 35  1  0
  3 36  1  0
  4 37  1  0
  8 38  1  0
  9 39  1  0
 10 40  1  0
 11 41  1  0
 14 42  1  0
 23 43  1  0
 24 44  1  0
 25 45  1  0
 26 46  1  0
 27 47  1  0
 28 48  1  0
 29 49  1  0
 31 50  1  0
 32 51  1  0
M  END
