
     RDKit          3D

 50 54  0  0  0  0  0  0  0  0999 V2000
   -6.1188   -4.7214    0.7278 C   0  0  0  0  0  0  0  0  0  0  0  0
   -5.0696   -5.0127   -0.2700 O   0  0  0  0  0  0  0  0  0  0  0  0
   -4.2383   -3.8443   -0.5042 C   0  0  0  0  0  0  0  0  0  0  0  0
   -4.5343   -2.7590    0.2712 C   0  0  0  0  0  0  0  0  0  0  0  0
   -3.8345   -1.6625    0.0768 C   0  0  0  0  0  0  0  0  0  0  0  0
   -2.7046   -1.4434   -0.9037 C   0  0  0  0  0  0  0  0  0  0  0  0
   -2.0710   -0.3690   -0.5447 C   0  0  0  0  0  0  0  0  0  0  0  0
   -1.4336    0.7258   -0.1726 C   0  0  0  0  0  0  0  0  0  0  0  0
   -0.7764    1.8162    0.2149 C   0  0  0  0  0  0  0  0  0  0  0  0
   -1.7182    2.9566    0.3117 N   0  0  0  0  0  0  0  0  0  0  0  0
   -1.3728    4.1076    0.5942 C   0  0  0  0  0  0  0  0  0  0  0  0
   -2.3074    5.1448    0.5789 C   0  0  0  0  0  0  0  0  0  0  0  0
   -1.9925    6.4071    0.8354 C   0  0  0  0  0  0  0  0  0  0  0  0
   -0.6129    6.7414    1.1529 C   0  0  0  0  0  0  0  0  0  0  0  0
    0.2460    5.7223    1.1482 C   0  0  0  0  0  0  0  0  0  0  0  0
   -0.0654    4.4190    0.8852 C   0  0  0  0  0  0  0  0  0  0  0  0
    0.8443    3.4276    0.8385 N   0  0  0  0  0  0  0  0  0  0  0  0
    0.4796    2.1124    0.4788 C   0  0  0  0  0  0  0  0  0  0  0  0
    1.5990    1.2940    0.0745 C   0  0  0  0  0  0  0  0  0  0  0  0
    2.5379    1.7628   -0.8065 C   0  0  0  0  0  0  0  0  0  0  0  0
    3.6326    0.9698   -0.9853 C   0  0  0  0  0  0  0  0  0  0  0  0
    3.3633   -0.0973   -0.1748 N   0  0  0  0  0  0  0  0  0  0  0  0
    4.2829   -1.1814   -0.0774 C   0  0  0  0  0  0  0  0  0  0  0  0
    5.3781   -1.1910   -0.9861 C   0  0  0  0  0  0  0  0  0  0  0  0
    6.2959   -2.2447   -0.8218 C   0  0  0  0  0  0  0  0  0  0  0  0
    6.1497   -3.2136    0.1357 C   0  0  0  0  0  0  0  0  0  0  0  0
    5.0867   -3.1778    0.9843 C   0  0  0  0  0  0  0  0  0  0  0  0
    4.1727   -2.1606    0.8622 C   0  0  0  0  0  0  0  0  0  0  0  0
    2.1505    0.0391    0.4764 C   0  0  0  0  0  0  0  0  0  0  0  0
   -2.5092   -2.6524   -1.6226 C   0  0  0  0  0  0  0  0  0  0  0  0
   -3.2599   -3.7770   -1.4046 C   0  0  0  0  0  0  0  0  0  0  0  0
   -6.6121   -3.7218    0.4993 H   0  0  0  0  0  0  0  0  0  0  0  0
   -5.5507   -4.6800    1.6643 H   0  0  0  0  0  0  0  0  0  0  0  0
   -6.9223   -5.4100    0.7167 H   0  0  0  0  0  0  0  0  0  0  0  0
   -5.2481   -2.7719    1.1046 H   0  0  0  0  0  0  0  0  0  0  0  0
   -4.1344   -0.7424    0.6525 H   0  0  0  0  0  0  0  0  0  0  0  0
   -3.3200    4.8890    0.3063 H   0  0  0  0  0  0  0  0  0  0  0  0
   -2.6309    7.2799    0.8316 H   0  0  0  0  0  0  0  0  0  0  0  0
   -0.3244    7.7502    1.4052 H   0  0  0  0  0  0  0  0  0  0  0  0
    1.3318    5.9226    1.3039 H   0  0  0  0  0  0  0  0  0  0  0  0
    2.4186    2.7474   -1.3607 H   0  0  0  0  0  0  0  0  0  0  0  0
    4.4858    1.1593   -1.6057 H   0  0  0  0  0  0  0  0  0  0  0  0
    5.5337   -0.4877   -1.7697 H   0  0  0  0  0  0  0  0  0  0  0  0
    7.1793   -2.2200   -1.4585 H   0  0  0  0  0  0  0  0  0  0  0  0
    6.9373   -3.9833    0.1294 H   0  0  0  0  0  0  0  0  0  0  0  0
    4.9890   -3.9475    1.7334 H   0  0  0  0  0  0  0  0  0  0  0  0
    3.3061   -2.1031    1.5538 H   0  0  0  0  0  0  0  0  0  0  0  0
    1.6645   -0.5988    1.1490 H   0  0  0  0  0  0  0  0  0  0  0  0
   -1.6941   -2.5404   -2.3005 H   0  0  0  0  0  0  0  0  0  0  0  0
   -3.0086   -4.6799   -1.9994 H   0  0  0  0  0  0  0  0  0  0  0  0
  1  2  1  0
  2  3  1  0
  3  4  2  0
  4  5  1  0
  5  6  2  0
  6  7  1  0
  7  8  3  0
  8  9  1  0
  9 10  2  0
 10 11  1  0
 11 12  2  0
 12 13  1  0
 13 14  2  0
 14 15  1  0
 15 16  2  0
 16 17  1  0
 17 18  2  0
 18 19  1  0
 19 20  1  0
 20 21  2  0
 21 22  1  0
 22 23  1  0
 23 24  2  0
 24 25  1  0
 25 26  2  0
 26 27  1  0
 27 28  2  0
 22 29  1  0
  6 30  1  0
 30 31  2  0
 31  3  1  0
 18  9  1  0
 29 19  2  0
 16 11  1  0
 28 23  1  0
  1 32  1  0
  1 33  1  0
  1 34  1  0
  4 35  1  0
  5 36  1  0
 12 37  1  0
 13 38  1  0
 14 39  1  0
 15 40  1  0
 20 41  1  0
 21 42  1  0
 24 43  1  0
 25 44  1  0
 26 45  1  0
 27 46  1  0
 28 47  1  0
 29 48  1  0
 30 49  1  0
 31 50  1  0
M  END
