
     RDKit          3D

 46 51  0  0  0  0  0  0  0  0999 V2000
    5.5354   -1.3348    0.0001 C   0  0  0  0  0  0  0  0  0  0  0  0
    4.6781   -1.5434    1.0616 C   0  0  0  0  0  0  0  0  0  0  0  0
    3.3929   -0.9919    1.0278 C   0  0  0  0  0  0  0  0  0  0  0  0
    2.9544   -0.2431   -0.0381 C   0  0  0  0  0  0  0  0  0  0  0  0
    1.6369    0.2962   -0.0238 N   0  0  0  0  0  0  0  0  0  0  0  0
    1.3482    1.6103   -0.0233 C   0  0  0  0  0  0  0  0  0  0  0  0
    2.1767    2.7334   -0.0353 C   0  0  0  0  0  0  0  0  0  0  0  0
    1.5499    3.9586   -0.0306 C   0  0  0  0  0  0  0  0  0  0  0  0
    0.1635    4.0722   -0.0147 C   0  0  0  0  0  0  0  0  0  0  0  0
   -0.6234    2.9455   -0.0031 C   0  0  0  0  0  0  0  0  0  0  0  0
   -0.0170    1.7082   -0.0076 C   0  0  0  0  0  0  0  0  0  0  0  0
   -0.5580    0.4407    0.0015 C   0  0  0  0  0  0  0  0  0  0  0  0
    0.5008   -0.4544   -0.0090 C   0  0  0  0  0  0  0  0  0  0  0  0
    0.0203   -1.7439   -0.0006 C   0  0  0  0  0  0  0  0  0  0  0  0
    0.6468   -2.9697   -0.0053 C   0  0  0  0  0  0  0  0  0  0  0  0
   -0.1519   -4.1156    0.0064 C   0  0  0  0  0  0  0  0  0  0  0  0
   -1.5289   -4.0088    0.0222 C   0  0  0  0  0  0  0  0  0  0  0  0
   -2.1150   -2.7612    0.0264 C   0  0  0  0  0  0  0  0  0  0  0  0
   -1.3509   -1.6242    0.0151 C   0  0  0  0  0  0  0  0  0  0  0  0
   -1.6770   -0.3103    0.0161 N   0  0  0  0  0  0  0  0  0  0  0  0
   -2.9776    0.2714    0.0300 C   0  0  0  0  0  0  0  0  0  0  0  0
   -3.4744    0.9586    1.1186 C   0  0  0  0  0  0  0  0  0  0  0  0
   -4.7436    1.5184    1.1138 C   0  0  0  0  0  0  0  0  0  0  0  0
   -5.5598    1.4009   -0.0017 C   0  0  0  0  0  0  0  0  0  0  0  0
   -5.0643    0.7148   -1.0891 C   0  0  0  0  0  0  0  0  0  0  0  0
   -3.7977    0.1603   -1.0747 C   0  0  0  0  0  0  0  0  0  0  0  0
    3.8074   -0.0375   -1.0905 C   0  0  0  0  0  0  0  0  0  0  0  0
    5.0734   -0.5792   -1.0600 C   0  0  0  0  0  0  0  0  0  0  0  0
    6.5287   -1.7621    0.0284 H   0  0  0  0  0  0  0  0  0  0  0  0
    5.0036   -2.1372    1.9241 H   0  0  0  0  0  0  0  0  0  0  0  0
    2.7868   -1.2070    1.9052 H   0  0  0  0  0  0  0  0  0  0  0  0
    3.2522    2.6084   -0.0476 H   0  0  0  0  0  0  0  0  0  0  0  0
    2.1774    4.8310   -0.0398 H   0  0  0  0  0  0  0  0  0  0  0  0
   -0.3198    5.0300   -0.0111 H   0  0  0  0  0  0  0  0  0  0  0  0
   -1.7023    2.9897    0.0094 H   0  0  0  0  0  0  0  0  0  0  0  0
    1.7020   -3.1035   -0.0174 H   0  0  0  0  0  0  0  0  0  0  0  0
    0.3434   -5.0654    0.0026 H   0  0  0  0  0  0  0  0  0  0  0  0
   -2.1017   -4.9276    0.0309 H   0  0  0  0  0  0  0  0  0  0  0  0
   -3.1880   -2.6568    0.0387 H   0  0  0  0  0  0  0  0  0  0  0  0
   -2.8738    1.0718    2.0018 H   0  0  0  0  0  0  0  0  0  0  0  0
   -5.1106    2.0575    1.9914 H   0  0  0  0  0  0  0  0  0  0  0  0
   -6.5444    1.8469    0.0219 H   0  0  0  0  0  0  0  0  0  0  0  0
   -5.6954    0.6196   -1.9618 H   0  0  0  0  0  0  0  0  0  0  0  0
   -3.4063   -0.3862   -1.9443 H   0  0  0  0  0  0  0  0  0  0  0  0
    3.5199    0.5532   -1.9769 H   0  0  0  0  0  0  0  0  0  0  0  0
    5.7828   -0.4336   -1.8876 H   0  0  0  0  0  0  0  0  0  0  0  0
  1  2  2  0
  2  3  1  0
  3  4  2  0
  4  5  1  0
  5  6  1  0
  6  7  2  0
  7  8  1  0
  8  9  2  0
  9 10  1  0
 10 11  2  0
 11 12  1  0
 12 13  2  0
 13 14  1  0
 14 15  2  0
 15 16  1  0
 16 17  2  0
 17 18  1  0
 18 19  2  0
 19 20  1  0
 20 21  1  0
 21 22  2  0
 22 23  1  0
 23 24  2  0
 24 25  1  0
 25 26  2  0
  4 27  1  0
 27 28  2  0
 28  1  1  0
 13  5  1  0
 19 14  1  0
 26 21  1  0
 11  6  1  0
 20 12  1  0
  1 29  1  0
  2 30  1  0
  3 31  1  0
  7 32  1  0
  8 33  1  0
  9 34  1  0
 10 35  1  0
 15 36  1  0
 16 37  1  0
 17 38  1  0
 18 39  1  0
 22 40  1  0
 23 41  1  0
 24 42  1  0
 25 43  1  0
 26 44  1  0
 27 45  1  0
 28 46  1  0
M  END
