
     RDKit          3D

 65 66  0  0  0  0  0  0  0  0999 V2000
    7.7764   -0.2367   -2.7170 C   0  0  0  0  0  0  0  0  0  0  0  0
    6.6253   -1.1958   -2.4765 C   0  0  0  0  0  0  0  0  0  0  0  0
    6.2631   -1.0990   -1.0070 C   0  0  0  0  0  0  0  0  0  0  0  0
    5.1121   -2.0346   -0.6827 C   0  0  0  0  0  0  0  0  0  0  0  0
    4.7204   -1.9755    0.7590 C   0  0  0  0  0  0  0  0  0  0  0  0
    4.2715   -0.5927    1.1990 C   0  0  0  0  0  0  0  0  0  0  0  0
    3.1015   -0.0990    0.4412 C   0  0  0  0  0  0  0  0  0  0  0  0
    1.8694   -0.9138    0.5278 C   0  0  0  0  0  0  0  0  0  0  0  0
    1.2739   -1.1185    1.8479 C   0  0  0  0  0  0  0  0  0  0  0  0
    0.8677    0.0023    2.7057 C   0  0  0  0  0  0  0  0  0  0  0  0
   -0.1575    0.9775    2.2809 C   0  0  0  0  0  0  0  0  0  0  0  0
    0.1628    1.8333    1.0966 C   0  0  0  0  0  0  0  0  0  0  0  0
   -0.8526    2.7270    0.7558 O   0  0  0  0  0  0  0  0  0  0  0  0
   -2.1142    2.5305    0.3126 C   0  0  0  0  0  0  0  0  0  0  0  0
   -2.6129    1.2697    0.0856 C   0  0  0  0  0  0  0  0  0  0  0  0
   -3.9178    1.0799   -0.3753 C   0  0  0  0  0  0  0  0  0  0  0  0
   -4.4128   -0.1768   -0.5994 C   0  0  0  0  0  0  0  0  0  0  0  0
   -5.7132   -0.3672   -1.0583 C   0  0  0  0  0  0  0  0  0  0  0  0
   -6.2209   -1.6769   -1.2877 N   0  0  0  0  0  0  0  0  0  0  0  0
   -7.5742   -1.8608   -1.7727 C   0  0  0  0  0  0  0  0  0  0  0  0
   -5.4117   -2.8503   -1.0466 C   0  0  0  0  0  0  0  0  0  0  0  0
   -6.5058    0.7280   -1.2876 C   0  0  0  0  0  0  0  0  0  0  0  0
   -5.9884    2.0078   -1.0548 C   0  0  0  0  0  0  0  0  0  0  0  0
   -4.7052    2.1873   -0.6022 C   0  0  0  0  0  0  0  0  0  0  0  0
   -4.2184    3.4615   -0.3799 C   0  0  0  0  0  0  0  0  0  0  0  0
   -2.9325    3.6515    0.0749 C   0  0  0  0  0  0  0  0  0  0  0  0
   -2.4033    4.9771    0.3144 C   0  0  0  0  0  0  0  0  0  0  0  0
   -3.1184    5.9757    0.1077 O   0  0  0  0  0  0  0  0  0  0  0  0
    7.3812    0.6128   -3.3454 H   0  0  0  0  0  0  0  0  0  0  0  0
    8.5919   -0.7361   -3.2987 H   0  0  0  0  0  0  0  0  0  0  0  0
    8.1608    0.1928   -1.7685 H   0  0  0  0  0  0  0  0  0  0  0  0
    6.9478   -2.2450   -2.6647 H   0  0  0  0  0  0  0  0  0  0  0  0
    5.7485   -0.9704   -3.1193 H   0  0  0  0  0  0  0  0  0  0  0  0
    5.9168   -0.0627   -0.8120 H   0  0  0  0  0  0  0  0  0  0  0  0
    7.1401   -1.3930   -0.4237 H   0  0  0  0  0  0  0  0  0  0  0  0
    4.2539   -1.8666   -1.3664 H   0  0  0  0  0  0  0  0  0  0  0  0
    5.4685   -3.0647   -0.8851 H   0  0  0  0  0  0  0  0  0  0  0  0
    5.6230   -2.2957    1.3493 H   0  0  0  0  0  0  0  0  0  0  0  0
    3.9546   -2.7441    0.9476 H   0  0  0  0  0  0  0  0  0  0  0  0
    5.1408    0.0828    1.0616 H   0  0  0  0  0  0  0  0  0  0  0  0
    4.1224   -0.6621    2.2934 H   0  0  0  0  0  0  0  0  0  0  0  0
    3.4242   -0.0099   -0.6376 H   0  0  0  0  0  0  0  0  0  0  0  0
    2.8754    0.9423    0.7458 H   0  0  0  0  0  0  0  0  0  0  0  0
    2.2281   -1.9897    0.2044 H   0  0  0  0  0  0  0  0  0  0  0  0
    1.1140   -0.7355   -0.2432 H   0  0  0  0  0  0  0  0  0  0  0  0
    1.8441   -1.9161    2.4557 H   0  0  0  0  0  0  0  0  0  0  0  0
    0.3042   -1.7135    1.6561 H   0  0  0  0  0  0  0  0  0  0  0  0
    0.4664   -0.4705    3.6754 H   0  0  0  0  0  0  0  0  0  0  0  0
    1.7567    0.6319    3.0408 H   0  0  0  0  0  0  0  0  0  0  0  0
   -1.1939    0.5602    2.2907 H   0  0  0  0  0  0  0  0  0  0  0  0
   -0.2303    1.7499    3.1479 H   0  0  0  0  0  0  0  0  0  0  0  0
    0.4086    1.2599    0.2054 H   0  0  0  0  0  0  0  0  0  0  0  0
    1.0310    2.4827    1.4217 H   0  0  0  0  0  0  0  0  0  0  0  0
   -2.0520    0.3558    0.2183 H   0  0  0  0  0  0  0  0  0  0  0  0
   -3.7764   -1.0223   -0.4146 H   0  0  0  0  0  0  0  0  0  0  0  0
   -7.7043   -1.2969   -2.7233 H   0  0  0  0  0  0  0  0  0  0  0  0
   -8.2508   -1.4899   -0.9812 H   0  0  0  0  0  0  0  0  0  0  0  0
   -7.8016   -2.9223   -1.9292 H   0  0  0  0  0  0  0  0  0  0  0  0
   -6.0746   -3.7298   -1.0209 H   0  0  0  0  0  0  0  0  0  0  0  0
   -4.7577   -2.9775   -1.9351 H   0  0  0  0  0  0  0  0  0  0  0  0
   -4.8286   -2.7314   -0.1071 H   0  0  0  0  0  0  0  0  0  0  0  0
   -7.5170    0.6733   -1.6406 H   0  0  0  0  0  0  0  0  0  0  0  0
   -6.6198    2.8711   -1.2377 H   0  0  0  0  0  0  0  0  0  0  0  0
   -4.8841    4.3102   -0.5759 H   0  0  0  0  0  0  0  0  0  0  0  0
   -1.3962    5.1085    0.6700 H   0  0  0  0  0  0  0  0  0  0  0  0
  1  2  1  0
  2  3  1  0
  3  4  1  0
  4  5  1  0
  5  6  1  0
  6  7  1  0
  7  8  1  0
  8  9  1  0
  9 10  1  0
 10 11  1  0
 11 12  1  0
 12 13  1  0
 13 14  1  0
 14 15  2  0
 15 16  1  0
 16 17  2  0
 17 18  1  0
 18 19  1  0
 19 20  1  0
 19 21  1  0
 18 22  2  0
 22 23  1  0
 23 24  2  0
 24 25  1  0
 25 26  2  0
 26 27  1  0
 27 28  2  0
 26 14  1  0
 24 16  1  0
  1 29  1  0
  1 30  1  0
  1 31  1  0
  2 32  1  0
  2 33  1  0
  3 34  1  0
  3 35  1  0
  4 36  1  0
  4 37  1  0
  5 38  1  0
  5 39  1  0
  6 40  1  0
  6 41  1  0
  7 42  1  0
  7 43  1  0
  8 44  1  0
  8 45  1  0
  9 46  1  0
  9 47  1  0
 10 48  1  0
 10 49  1  0
 11 50  1  0
 11 51  1  0
 12 52  1  0
 12 53  1  0
 15 54  1  0
 17 55  1  0
 20 56  1  0
 20 57  1  0
 20 58  1  0
 21 59  1  0
 21 60  1  0
 21 61  1  0
 22 62  1  0
 23 63  1  0
 25 64  1  0
 27 65  1  0
M  END
