
     RDKit          3D

 58 62  0  0  0  0  0  0  0  0999 V2000
    7.5771    0.8688    0.5304 C   0  0  0  0  0  0  0  0  0  0  0  0
    6.7998   -0.2986    0.8652 N   0  0  0  0  0  0  0  0  0  0  0  0
    7.4517   -1.4169    1.5046 C   0  0  0  0  0  0  0  0  0  0  0  0
    5.4116   -0.3751    0.5818 C   0  0  0  0  0  0  0  0  0  0  0  0
    4.8122    0.7095   -0.0380 C   0  0  0  0  0  0  0  0  0  0  0  0
    3.4546    0.6475   -0.3218 C   0  0  0  0  0  0  0  0  0  0  0  0
    2.7561   -0.4803    0.0193 C   0  0  0  0  0  0  0  0  0  0  0  0
    1.3163   -0.5118   -0.2987 C   0  0  0  0  0  0  0  0  0  0  0  0
    0.5345    0.4376   -0.8861 C   0  0  0  0  0  0  0  0  0  0  0  0
   -0.7823    0.1400   -1.0609 C   0  0  0  0  0  0  0  0  0  0  0  0
   -1.1921   -1.0874   -0.6300 C   0  0  0  0  0  0  0  0  0  0  0  0
    0.2271   -1.7896   -0.0014 S   0  0  0  0  0  0  0  0  0  0  0  0
   -2.5115   -1.5628   -0.7482 C   0  0  0  0  0  0  0  0  0  0  0  0
   -2.7909   -2.8898   -0.2556 C   0  0  0  0  0  0  0  0  0  0  0  0
   -1.8418   -3.7444   -0.3382 O   0  0  0  0  0  0  0  0  0  0  0  0
   -4.0430   -3.3422    0.3218 C   0  0  0  0  0  0  0  0  0  0  0  0
   -4.9005   -2.4197    0.8542 C   0  0  0  0  0  0  0  0  0  0  0  0
   -6.1175   -2.7635    1.4121 C   0  0  0  0  0  0  0  0  0  0  0  0
   -6.4618   -4.1066    1.4214 C   0  0  0  0  0  0  0  0  0  0  0  0
   -5.5958   -5.0397    0.8838 C   0  0  0  0  0  0  0  0  0  0  0  0
   -4.4019   -4.6667    0.3407 C   0  0  0  0  0  0  0  0  0  0  0  0
   -3.4555   -0.7498   -1.3328 C   0  0  0  0  0  0  0  0  0  0  0  0
   -2.9959    0.4790   -1.7505 C   0  0  0  0  0  0  0  0  0  0  0  0
   -3.9019    1.2055   -2.2895 O   0  0  0  0  0  0  0  0  0  0  0  0
   -1.7566    0.9258   -1.6378 N   0  0  0  0  0  0  0  0  0  0  0  0
   -1.4296    2.2425   -2.1246 C   0  0  0  0  0  0  0  0  0  0  0  0
   -1.6806    3.3170   -1.1728 C   0  0  0  0  0  0  0  0  0  0  0  0
   -0.8328    3.6640   -0.1629 C   0  0  0  0  0  0  0  0  0  0  0  0
   -1.1332    4.7192    0.7177 C   0  0  0  0  0  0  0  0  0  0  0  0
   -2.2877    5.4488    0.6058 C   0  0  0  0  0  0  0  0  0  0  0  0
   -3.1525    5.1100   -0.4090 C   0  0  0  0  0  0  0  0  0  0  0  0
   -2.8529    4.0637   -1.2813 C   0  0  0  0  0  0  0  0  0  0  0  0
    3.3286   -1.5687    0.6349 C   0  0  0  0  0  0  0  0  0  0  0  0
    4.6887   -1.4967    0.9150 C   0  0  0  0  0  0  0  0  0  0  0  0
    7.4139    1.2064   -0.5170 H   0  0  0  0  0  0  0  0  0  0  0  0
    8.6349    0.6368    0.6289 H   0  0  0  0  0  0  0  0  0  0  0  0
    7.3183    1.7004    1.2324 H   0  0  0  0  0  0  0  0  0  0  0  0
    7.2202   -1.3972    2.6020 H   0  0  0  0  0  0  0  0  0  0  0  0
    8.5553   -1.2746    1.4205 H   0  0  0  0  0  0  0  0  0  0  0  0
    7.1374   -2.3997    1.1215 H   0  0  0  0  0  0  0  0  0  0  0  0
    5.4202    1.5614   -0.2774 H   0  0  0  0  0  0  0  0  0  0  0  0
    3.0115    1.5233   -0.8132 H   0  0  0  0  0  0  0  0  0  0  0  0
    1.0284    1.3904   -1.1988 H   0  0  0  0  0  0  0  0  0  0  0  0
   -4.6691   -1.3578    0.8788 H   0  0  0  0  0  0  0  0  0  0  0  0
   -6.7736   -2.0114    1.8240 H   0  0  0  0  0  0  0  0  0  0  0  0
   -7.4071   -4.3854    1.8530 H   0  0  0  0  0  0  0  0  0  0  0  0
   -5.9329   -6.0762    0.9265 H   0  0  0  0  0  0  0  0  0  0  0  0
   -3.7246   -5.4138   -0.0820 H   0  0  0  0  0  0  0  0  0  0  0  0
   -4.4567   -1.0965   -1.4398 H   0  0  0  0  0  0  0  0  0  0  0  0
   -0.3673    2.2419   -2.4660 H   0  0  0  0  0  0  0  0  0  0  0  0
   -2.0390    2.4034   -3.0386 H   0  0  0  0  0  0  0  0  0  0  0  0
    0.0895    3.1353   -0.0211 H   0  0  0  0  0  0  0  0  0  0  0  0
   -0.4406    4.9640    1.5016 H   0  0  0  0  0  0  0  0  0  0  0  0
   -2.4966    6.2543    1.2943 H   0  0  0  0  0  0  0  0  0  0  0  0
   -4.0683    5.6734   -0.5135 H   0  0  0  0  0  0  0  0  0  0  0  0
   -3.5517    3.8403   -2.0663 H   0  0  0  0  0  0  0  0  0  0  0  0
    2.7281   -2.4300    0.8806 H   0  0  0  0  0  0  0  0  0  0  0  0
    5.1296   -2.3572    1.4006 H   0  0  0  0  0  0  0  0  0  0  0  0
  1  2  1  0
  2  3  1  0
  2  4  1  0
  4  5  2  0
  5  6  1  0
  6  7  2  0
  7  8  1  0
  8  9  2  0
  9 10  1  0
 10 11  2  0
 11 12  1  0
 11 13  1  0
 13 14  1  0
 14 15  2  0
 14 16  1  0
 16 17  2  0
 17 18  1  0
 18 19  2  0
 19 20  1  0
 20 21  2  0
 13 22  2  0
 22 23  1  0
 23 24  2  0
 23 25  1  0
 25 26  1  0
 26 27  1  0
 27 28  2  0
 28 29  1  0
 29 30  2  0
 30 31  1  0
 31 32  2  0
  7 33  1  0
 33 34  2  0
 34  4  1  0
 12  8  1  0
 21 16  1  0
 32 27  1  0
 25 10  1  0
  1 35  1  0
  1 36  1  0
  1 37  1  0
  3 38  1  0
  3 39  1  0
  3 40  1  0
  5 41  1  0
  6 42  1  0
  9 43  1  0
 17 44  1  0
 18 45  1  0
 19 46  1  0
 20 47  1  0
 21 48  1  0
 22 49  1  0
 26 50  1  0
 26 51  1  0
 28 52  1  0
 29 53  1  0
 30 54  1  0
 31 55  1  0
 32 56  1  0
 33 57  1  0
 34 58  1  0
M  END
