
     RDKit          3D

 43 46  0  0  0  0  0  0  0  0999 V2000
    0.6872   -4.1273    0.6569 C   0  0  0  0  0  0  0  0  0  0  0  0
   -0.3012   -3.1577    0.2357 N   0  0  0  0  0  0  0  0  0  0  0  0
   -1.5599   -3.5737    0.2004 C   0  0  0  0  0  0  0  0  0  0  0  0
   -1.8301   -4.7641    0.5573 O   0  0  0  0  0  0  0  0  0  0  0  0
   -2.6417   -2.8042   -0.2082 C   0  0  0  0  0  0  0  0  0  0  0  0
   -2.2971   -1.4967   -0.6008 C   0  0  0  0  0  0  0  0  0  0  0  0
   -3.3307   -0.6474   -1.1123 C   0  0  0  0  0  0  0  0  0  0  0  0
   -3.6714   -0.8828   -2.3389 O   0  0  0  0  0  0  0  0  0  0  0  0
   -4.0103    0.3935   -0.4176 C   0  0  0  0  0  0  0  0  0  0  0  0
   -3.4747    0.9770    0.6980 C   0  0  0  0  0  0  0  0  0  0  0  0
   -4.2126    1.9820    1.3021 C   0  0  0  0  0  0  0  0  0  0  0  0
   -5.4369    2.4146    0.8456 C   0  0  0  0  0  0  0  0  0  0  0  0
   -5.9769    1.8116   -0.2874 C   0  0  0  0  0  0  0  0  0  0  0  0
   -5.2599    0.8261   -0.8863 C   0  0  0  0  0  0  0  0  0  0  0  0
   -0.9756   -1.0506   -0.5620 C   0  0  0  0  0  0  0  0  0  0  0  0
   -0.1753    0.3976   -0.9063 S   0  0  0  0  0  0  0  0  0  0  0  0
    1.4086   -0.0381   -0.5262 C   0  0  0  0  0  0  0  0  0  0  0  0
    2.6862    0.7384   -0.4857 C   0  0  0  0  0  0  0  0  0  0  0  0
    3.8909    0.0491   -0.3145 C   0  0  0  0  0  0  0  0  0  0  0  0
    5.0368    0.7811   -0.1492 C   0  0  0  0  0  0  0  0  0  0  0  0
    5.0370    2.1530   -0.1439 C   0  0  0  0  0  0  0  0  0  0  0  0
    6.3202    2.8528    0.0801 C   0  0  0  0  0  0  0  0  0  0  0  0
    6.5537    3.7040   -0.9765 F   0  0  0  0  0  0  0  0  0  0  0  0
    7.3628    1.9598    0.1747 F   0  0  0  0  0  0  0  0  0  0  0  0
    6.2869    3.5538    1.2747 F   0  0  0  0  0  0  0  0  0  0  0  0
    3.8372    2.8109   -0.3177 C   0  0  0  0  0  0  0  0  0  0  0  0
    2.6597    2.0904   -0.4886 C   0  0  0  0  0  0  0  0  0  0  0  0
    1.2821   -1.3389   -0.1273 C   0  0  0  0  0  0  0  0  0  0  0  0
    0.0375   -1.8772   -0.1447 C   0  0  0  0  0  0  0  0  0  0  0  0
    1.6666   -3.8701    0.1625 H   0  0  0  0  0  0  0  0  0  0  0  0
    0.8068   -4.1727    1.7690 H   0  0  0  0  0  0  0  0  0  0  0  0
    0.4268   -5.1665    0.3211 H   0  0  0  0  0  0  0  0  0  0  0  0
   -3.6467   -3.1557   -0.2185 H   0  0  0  0  0  0  0  0  0  0  0  0
   -2.5068    0.7054    1.1294 H   0  0  0  0  0  0  0  0  0  0  0  0
   -3.7800    2.4410    2.2005 H   0  0  0  0  0  0  0  0  0  0  0  0
   -6.0130    3.1953    1.3195 H   0  0  0  0  0  0  0  0  0  0  0  0
   -6.9477    2.1457   -0.6472 H   0  0  0  0  0  0  0  0  0  0  0  0
   -5.6421    0.3308   -1.7625 H   0  0  0  0  0  0  0  0  0  0  0  0
    3.9510   -1.0268   -0.3130 H   0  0  0  0  0  0  0  0  0  0  0  0
    5.9889    0.2297   -0.0052 H   0  0  0  0  0  0  0  0  0  0  0  0
    3.8257    3.8763   -0.3224 H   0  0  0  0  0  0  0  0  0  0  0  0
    1.7443    2.6383   -0.6170 H   0  0  0  0  0  0  0  0  0  0  0  0
    2.1936   -1.9075    0.1978 H   0  0  0  0  0  0  0  0  0  0  0  0
  1  2  1  0
  2  3  1  0
  3  4  2  0
  3  5  1  0
  5  6  2  0
  6  7  1  0
  7  8  2  0
  7  9  1  0
  9 10  2  0
 10 11  1  0
 11 12  2  0
 12 13  1  0
 13 14  2  0
  6 15  1  0
 15 16  1  0
 16 17  1  0
 17 18  1  0
 18 19  2  0
 19 20  1  0
 20 21  2  0
 21 22  1  0
 22 23  1  0
 22 24  1  0
 22 25  1  0
 21 26  1  0
 26 27  2  0
 17 28  2  0
 28 29  1  0
 29  2  1  0
 14  9  1  0
 29 15  2  0
 27 18  1  0
  1 30  1  0
  1 31  1  0
  1 32  1  0
  5 33  1  0
 10 34  1  0
 11 35  1  0
 12 36  1  0
 13 37  1  0
 14 38  1  0
 19 39  1  0
 20 40  1  0
 26 41  1  0
 27 42  1  0
 28 43  1  0
M  END
