
     RDKit          3D

 41 45  0  0  0  0  0  0  0  0999 V2000
    5.8487    0.9322   -1.3076 C   0  0  0  0  0  0  0  0  0  0  0  0
    4.7262    0.5136   -0.4077 C   0  0  0  0  0  0  0  0  0  0  0  0
    3.4101    0.5503   -0.8189 C   0  0  0  0  0  0  0  0  0  0  0  0
    2.3923    0.1599    0.0274 C   0  0  0  0  0  0  0  0  0  0  0  0
    1.0595    0.1825   -0.3489 C   0  0  0  0  0  0  0  0  0  0  0  0
    0.0473   -0.2060    0.4942 C   0  0  0  0  0  0  0  0  0  0  0  0
   -1.3140   -0.1606    0.1165 N   0  0  0  0  0  0  0  0  0  0  0  0
   -2.0932   -1.3450    0.1675 C   0  0  0  0  0  0  0  0  0  0  0  0
   -1.5912   -2.5685    0.5469 C   0  0  0  0  0  0  0  0  0  0  0  0
   -2.3845   -3.7230    0.5871 C   0  0  0  0  0  0  0  0  0  0  0  0
   -3.6937   -3.6296    0.2388 C   0  0  0  0  0  0  0  0  0  0  0  0
   -4.2062   -2.4158   -0.1419 C   0  0  0  0  0  0  0  0  0  0  0  0
   -3.4292   -1.2843   -0.1814 C   0  0  0  0  0  0  0  0  0  0  0  0
   -3.9648   -0.0634   -0.5710 O   0  0  0  0  0  0  0  0  0  0  0  0
   -3.2426    1.1147   -0.6352 C   0  0  0  0  0  0  0  0  0  0  0  0
   -3.8333    2.3028   -1.0309 C   0  0  0  0  0  0  0  0  0  0  0  0
   -3.1272    3.4825   -1.0978 C   0  0  0  0  0  0  0  0  0  0  0  0
   -1.7885    3.4579   -0.7548 C   0  0  0  0  0  0  0  0  0  0  0  0
   -1.2003    2.2597   -0.3578 C   0  0  0  0  0  0  0  0  0  0  0  0
   -1.8869    1.0800   -0.2867 C   0  0  0  0  0  0  0  0  0  0  0  0
    0.4018   -0.6288    1.7534 C   0  0  0  0  0  0  0  0  0  0  0  0
    1.7059   -0.6766    2.1924 C   0  0  0  0  0  0  0  0  0  0  0  0
    2.6941   -0.2729    1.3019 C   0  0  0  0  0  0  0  0  0  0  0  0
    4.0311   -0.2851    1.6497 C   0  0  0  0  0  0  0  0  0  0  0  0
    4.3069   -0.6853    2.8274 O   0  0  0  0  0  0  0  0  0  0  0  0
    4.9645    0.0947    0.8130 O   0  0  0  0  0  0  0  0  0  0  0  0
    6.2630    0.1003   -1.8781 H   0  0  0  0  0  0  0  0  0  0  0  0
    5.5070    1.7256   -2.0179 H   0  0  0  0  0  0  0  0  0  0  0  0
    6.6716    1.4034   -0.7172 H   0  0  0  0  0  0  0  0  0  0  0  0
    3.1759    0.8920   -1.8239 H   0  0  0  0  0  0  0  0  0  0  0  0
    0.8368    0.5182   -1.3477 H   0  0  0  0  0  0  0  0  0  0  0  0
   -0.5464   -2.6638    0.8212 H   0  0  0  0  0  0  0  0  0  0  0  0
   -1.9038   -4.6458    0.8992 H   0  0  0  0  0  0  0  0  0  0  0  0
   -4.2913   -4.5368    0.2769 H   0  0  0  0  0  0  0  0  0  0  0  0
   -5.2579   -2.3867   -0.4123 H   0  0  0  0  0  0  0  0  0  0  0  0
   -4.8785    2.3214   -1.2985 H   0  0  0  0  0  0  0  0  0  0  0  0
   -3.6255    4.3848   -1.4111 H   0  0  0  0  0  0  0  0  0  0  0  0
   -1.2230    4.3787   -0.8030 H   0  0  0  0  0  0  0  0  0  0  0  0
   -0.1610    2.2721   -0.0914 H   0  0  0  0  0  0  0  0  0  0  0  0
   -0.3756   -0.9344    2.4366 H   0  0  0  0  0  0  0  0  0  0  0  0
    1.9760   -1.0150    3.1968 H   0  0  0  0  0  0  0  0  0  0  0  0
  1  2  1  0
  2  3  2  0
  3  4  1  0
  4  5  2  0
  5  6  1  0
  6  7  1  0
  7  8  1  0
  8  9  2  0
  9 10  1  0
 10 11  2  0
 11 12  1  0
 12 13  2  0
 13 14  1  0
 14 15  1  0
 15 16  2  0
 16 17  1  0
 17 18  2  0
 18 19  1  0
 19 20  2  0
  6 21  2  0
 21 22  1  0
 22 23  2  0
 23 24  1  0
 24 25  2  0
 24 26  1  0
 26  2  1  0
 23  4  1  0
 20  7  1  0
 13  8  1  0
 20 15  1  0
  1 27  1  0
  1 28  1  0
  1 29  1  0
  3 30  1  0
  5 31  1  0
  9 32  1  0
 10 33  1  0
 11 34  1  0
 12 35  1  0
 16 36  1  0
 17 37  1  0
 18 38  1  0
 19 39  1  0
 21 40  1  0
 22 41  1  0
M  END
