
     RDKit          3D

 33 34  0  0  0  0  0  0  0  0999 V2000
    2.3850    1.0350    0.4782 C   0  0  0  0  0  0  0  0  0  0  0  0
    2.0747   -0.4308    0.5503 C   0  0  0  0  0  0  0  0  0  0  0  0
    1.4290   -0.8568   -0.7043 C   0  0  0  0  0  0  0  0  0  0  0  0
    2.2240   -1.5173   -1.6586 C   0  0  0  0  0  0  0  0  0  0  0  0
    1.6671   -1.9465   -2.8414 C   0  0  0  0  0  0  0  0  0  0  0  0
    0.3280   -1.7220   -3.0773 C   0  0  0  0  0  0  0  0  0  0  0  0
   -0.4366   -1.0741   -2.1335 C   0  0  0  0  0  0  0  0  0  0  0  0
    0.1040   -0.6260   -0.9208 C   0  0  0  0  0  0  0  0  0  0  0  0
   -0.6977    0.0636    0.0594 C   0  0  0  0  0  0  0  0  0  0  0  0
   -1.2804   -0.7095    1.0666 C   0  0  0  0  0  0  0  0  0  0  0  0
   -1.0671   -2.1275    1.1392 C   0  0  0  0  0  0  0  0  0  0  0  0
   -0.8721   -3.2876    1.2000 N   0  0  0  0  0  0  0  0  0  0  0  0
   -2.0825   -0.1244    2.0236 C   0  0  0  0  0  0  0  0  0  0  0  0
   -2.6851   -0.8765    3.0529 N   0  0  0  0  0  0  0  0  0  0  0  0
   -2.2901    1.2238    1.9597 N   0  0  0  0  0  0  0  0  0  0  0  0
   -1.7223    1.9682    0.9799 C   0  0  0  0  0  0  0  0  0  0  0  0
   -1.9541    3.3742    0.9357 N   0  0  0  0  0  0  0  0  0  0  0  0
   -0.9149    1.4249    0.0038 C   0  0  0  0  0  0  0  0  0  0  0  0
   -0.3471    2.2464   -1.0343 C   0  0  0  0  0  0  0  0  0  0  0  0
    0.1237    2.9007   -1.8627 N   0  0  0  0  0  0  0  0  0  0  0  0
    2.3494    1.3429   -0.5997 H   0  0  0  0  0  0  0  0  0  0  0  0
    3.4187    1.2271    0.8668 H   0  0  0  0  0  0  0  0  0  0  0  0
    1.7329    1.6888    1.0582 H   0  0  0  0  0  0  0  0  0  0  0  0
    1.4144   -0.6532    1.4165 H   0  0  0  0  0  0  0  0  0  0  0  0
    3.0464   -0.9900    0.6717 H   0  0  0  0  0  0  0  0  0  0  0  0
    3.2721   -1.6753   -1.4372 H   0  0  0  0  0  0  0  0  0  0  0  0
    2.2891   -2.4642   -3.5895 H   0  0  0  0  0  0  0  0  0  0  0  0
   -0.1190   -2.0591   -4.0107 H   0  0  0  0  0  0  0  0  0  0  0  0
   -1.4892   -0.8769   -2.2756 H   0  0  0  0  0  0  0  0  0  0  0  0
   -2.1996   -1.6961    3.4450 H   0  0  0  0  0  0  0  0  0  0  0  0
   -3.6127   -0.5955    3.4045 H   0  0  0  0  0  0  0  0  0  0  0  0
   -2.6192    3.7886    0.2463 H   0  0  0  0  0  0  0  0  0  0  0  0
   -1.4686    4.0252    1.5873 H   0  0  0  0  0  0  0  0  0  0  0  0
  1  2  1  0
  2  3  1  0
  3  4  2  0
  4  5  1  0
  5  6  2  0
  6  7  1  0
  7  8  2  0
  8  9  1  0
  9 10  2  0
 10 11  1  0
 11 12  3  0
 10 13  1  0
 13 14  1  0
 13 15  2  0
 15 16  1  0
 16 17  1  0
 16 18  2  0
 18 19  1  0
 19 20  3  0
  8  3  1  0
 18  9  1  0
  1 21  1  0
  1 22  1  0
  1 23  1  0
  2 24  1  0
  2 25  1  0
  4 26  1  0
  5 27  1  0
  6 28  1  0
  7 29  1  0
 14 30  1  0
 14 31  1  0
 17 32  1  0
 17 33  1  0
M  END
