
     RDKit          3D

 68 74  0  0  0  0  0  0  0  0999 V2000
    4.5389    4.6583   -0.1625 C   0  0  0  0  0  0  0  0  0  0  0  0
    5.0978    3.4183   -0.6447 N   0  0  0  0  0  0  0  0  0  0  0  0
    6.3288    3.4648   -1.4060 C   0  0  0  0  0  0  0  0  0  0  0  0
    4.4419    2.1893   -0.3692 C   0  0  0  0  0  0  0  0  0  0  0  0
    3.2872    2.1440    0.3456 C   0  0  0  0  0  0  0  0  0  0  0  0
    2.6710    0.8970    0.5961 C   0  0  0  0  0  0  0  0  0  0  0  0
    3.1723   -0.2850    0.1558 C   0  0  0  0  0  0  0  0  0  0  0  0
    2.4917   -1.5622    0.2885 C   0  0  0  0  0  0  0  0  0  0  0  0
    1.2216   -1.8667    0.3193 N   0  0  0  0  0  4  0  0  0  0  0  0
    1.0427   -3.2655    0.4681 C   0  0  0  0  0  0  0  0  0  0  0  0
   -0.1202   -3.8289    0.4310 N   0  0  0  0  0  0  0  0  0  0  0  0
   -1.3180   -3.0992    0.2338 C   0  0  0  0  0  0  0  0  0  0  0  0
   -2.6364   -3.5620    0.1430 C   0  0  0  0  0  0  0  0  0  0  0  0
   -3.1503   -4.8299    0.2167 C   0  0  0  0  0  0  0  0  0  0  0  0
   -4.5147   -4.9753    0.0567 C   0  0  0  0  0  0  0  0  0  0  0  0
   -5.3022   -3.8710   -0.1677 C   0  0  0  0  0  0  0  0  0  0  0  0
   -4.7462   -2.6042   -0.2360 C   0  0  0  0  0  0  0  0  0  0  0  0
   -3.3896   -2.4551   -0.0753 C   0  0  0  0  0  0  0  0  0  0  0  0
   -2.5667   -1.3057   -0.1193 C   0  0  0  0  0  0  0  0  0  0  0  0
   -3.1525    0.0174   -0.1823 C   0  0  0  0  0  0  0  0  0  0  0  0
   -2.6309    1.0952   -0.8263 C   0  0  0  0  0  0  0  0  0  0  0  0
   -3.2021    2.3814   -0.7238 C   0  0  0  0  0  0  0  0  0  0  0  0
   -4.3234    2.6138    0.0346 C   0  0  0  0  0  0  0  0  0  0  0  0
   -4.8944    3.9118    0.1330 N   0  0  0  0  0  0  0  0  0  0  0  0
   -4.3071    5.0238   -0.5664 C   0  0  0  0  0  0  0  0  0  0  0  0
   -6.0697    4.1231    0.9371 C   0  0  0  0  0  0  0  0  0  0  0  0
   -4.8703    1.5279    0.6972 C   0  0  0  0  0  0  0  0  0  0  0  0
   -4.3056    0.3010    0.5876 C   0  0  0  0  0  0  0  0  0  0  0  0
   -1.3087   -1.7630    0.0756 N   0  0  0  0  0  0  0  0  0  0  0  0
   -0.0182   -0.9497    0.2342 B   0  0  0  0  0  4  0  0  0  0  0  0
   -0.1811   -0.2691    1.5572 F   0  0  0  0  0  0  0  0  0  0  0  0
    0.2141    0.0653   -0.7391 F   0  0  0  0  0  0  0  0  0  0  0  0
    2.3834   -3.8296    0.5481 C   0  0  0  0  0  0  0  0  0  0  0  0
    2.8330   -5.1226    0.7269 C   0  0  0  0  0  0  0  0  0  0  0  0
    4.1875   -5.4136    0.8071 C   0  0  0  0  0  0  0  0  0  0  0  0
    5.1110   -4.4068    0.7095 C   0  0  0  0  0  0  0  0  0  0  0  0
    4.6380   -3.1017    0.5286 C   0  0  0  0  0  0  0  0  0  0  0  0
    3.2867   -2.8138    0.4462 C   0  0  0  0  0  0  0  0  0  0  0  0
    4.3645   -0.1848   -0.5791 C   0  0  0  0  0  0  0  0  0  0  0  0
    4.9844    1.0333   -0.8327 C   0  0  0  0  0  0  0  0  0  0  0  0
    5.1095    5.5284   -0.5298 H   0  0  0  0  0  0  0  0  0  0  0  0
    3.4550    4.7512   -0.4038 H   0  0  0  0  0  0  0  0  0  0  0  0
    4.6024    4.6873    0.9450 H   0  0  0  0  0  0  0  0  0  0  0  0
    6.1250    3.4309   -2.5091 H   0  0  0  0  0  0  0  0  0  0  0  0
    7.0288    2.6575   -1.1037 H   0  0  0  0  0  0  0  0  0  0  0  0
    6.8758    4.4161   -1.2394 H   0  0  0  0  0  0  0  0  0  0  0  0
    2.8669    3.0674    0.7064 H   0  0  0  0  0  0  0  0  0  0  0  0
    1.7856    0.9837    1.1900 H   0  0  0  0  0  0  0  0  0  0  0  0
   -2.4938   -5.6511    0.3921 H   0  0  0  0  0  0  0  0  0  0  0  0
   -4.9678   -5.9713    0.1087 H   0  0  0  0  0  0  0  0  0  0  0  0
   -6.3650   -4.0438   -0.2862 H   0  0  0  0  0  0  0  0  0  0  0  0
   -5.4400   -1.8186   -0.4456 H   0  0  0  0  0  0  0  0  0  0  0  0
   -1.7860    0.9920   -1.4825 H   0  0  0  0  0  0  0  0  0  0  0  0
   -2.7405    3.2049   -1.2595 H   0  0  0  0  0  0  0  0  0  0  0  0
   -5.0531    5.8607   -0.6970 H   0  0  0  0  0  0  0  0  0  0  0  0
   -3.4589    5.4473   -0.0025 H   0  0  0  0  0  0  0  0  0  0  0  0
   -4.0009    4.7691   -1.6128 H   0  0  0  0  0  0  0  0  0  0  0  0
   -5.9005    3.7170    1.9590 H   0  0  0  0  0  0  0  0  0  0  0  0
   -6.8791    3.4799    0.4927 H   0  0  0  0  0  0  0  0  0  0  0  0
   -6.3832    5.1653    0.9779 H   0  0  0  0  0  0  0  0  0  0  0  0
   -5.7527    1.7190    1.2909 H   0  0  0  0  0  0  0  0  0  0  0  0
   -4.7191   -0.5162    1.1425 H   0  0  0  0  0  0  0  0  0  0  0  0
    2.0712   -5.8913    0.8004 H   0  0  0  0  0  0  0  0  0  0  0  0
    4.5249   -6.4372    0.9473 H   0  0  0  0  0  0  0  0  0  0  0  0
    6.1729   -4.6082    0.7695 H   0  0  0  0  0  0  0  0  0  0  0  0
    5.3764   -2.3438    0.5024 H   0  0  0  0  0  0  0  0  0  0  0  0
    4.7612   -1.0854   -0.9966 H   0  0  0  0  0  0  0  0  0  0  0  0
    5.8969    0.9888   -1.4058 H   0  0  0  0  0  0  0  0  0  0  0  0
  1  2  1  0
  2  3  1  0
  2  4  1  0
  4  5  2  0
  5  6  1  0
  6  7  2  0
  7  8  1  0
  8  9  2  0
  9 10  1  0
 10 11  2  0
 11 12  1  0
 12 13  2  0
 13 14  1  0
 14 15  2  0
 15 16  1  0
 16 17  2  0
 17 18  1  0
 18 19  2  0
 19 20  1  0
 20 21  2  0
 21 22  1  0
 22 23  2  0
 23 24  1  0
 24 25  1  0
 24 26  1  0
 23 27  1  0
 27 28  2  0
 19 29  1  0
 29 30  1  0
 30 31  1  0
 30 32  1  0
 10 33  1  0
 33 34  2  0
 34 35  1  0
 35 36  2  0
 36 37  1  0
 37 38  2  0
  7 39  1  0
 39 40  2  0
 40  4  1  0
 38  8  1  0
 30  9  1  0
 38 33  1  0
 29 12  1  0
 18 13  1  0
 28 20  1  0
  1 41  1  0
  1 42  1  0
  1 43  1  0
  3 44  1  0
  3 45  1  0
  3 46  1  0
  5 47  1  0
  6 48  1  0
 14 49  1  0
 15 50  1  0
 16 51  1  0
 17 52  1  0
 21 53  1  0
 22 54  1  0
 25 55  1  0
 25 56  1  0
 25 57  1  0
 26 58  1  0
 26 59  1  0
 26 60  1  0
 27 61  1  0
 28 62  1  0
 34 63  1  0
 35 64  1  0
 36 65  1  0
 37 66  1  0
 39 67  1  0
 40 68  1  0
M  CHG  2   9   1  30  -1
M  END
