
  xtb     03212211413D
 energy: -147.883925700397 gnorm: 0.000162418956 xtb: 6.4.1 (afa7bdf)
 91 96  0     0  0            999 V2000
   -0.0047    0.8488    0.4303 C   0  0  0  0  0  0  0  0  0  0  0  0
    0.8364    1.2667   -0.6163 O   0  0  0  0  0  0  0  0  0  0  0  0
    0.9136    2.5958   -0.9008 C   0  0  0  0  0  0  0  0  0  0  0  0
    0.2167    3.5974   -0.2305 C   0  0  0  0  0  0  0  0  0  0  0  0
    0.3752    4.9176   -0.6051 C   0  0  0  0  0  0  0  0  0  0  0  0
    1.2300    5.2661   -1.6507 C   0  0  0  0  0  0  0  0  0  0  0  0
    1.3844    6.6199   -2.0041 C   0  0  0  0  0  0  0  0  0  0  0  0
    1.5081    7.7889   -2.2850 C   0  0  0  0  0  0  0  0  0  0  0  0
    1.5919    9.1750   -2.5276 C   0  0  0  0  0  0  0  0  0  0  0  0
    2.0705    9.5950   -3.6907 N   0  0  0  0  0  0  0  0  0  0  0  0
    2.1282   10.8976   -3.9321 C   0  0  0  0  0  0  0  0  0  0  0  0
    2.6621   11.3394   -5.1599 C   0  0  0  0  0  0  0  0  0  0  0  0
    3.1215   11.8039   -6.1766 C   0  0  0  0  0  0  0  0  0  0  0  0
    3.6525   12.3593   -7.3562 C   0  0  0  0  0  0  0  0  0  0  0  0
    4.0392   13.7042   -7.3802 C   0  0  0  0  0  0  0  0  0  0  0  0
    4.5485   14.2581   -8.5306 C   0  0  0  0  0  0  0  0  0  0  0  0
    4.6889   13.4888   -9.6895 C   0  0  0  0  0  0  0  0  0  0  0  0
    5.2006   14.1392  -10.7710 O   0  0  0  0  0  0  0  0  0  0  0  0
    5.3806   13.4213  -11.9668 C   0  0  0  0  0  0  0  0  0  0  0  0
    4.3105   12.1494   -9.6681 C   0  0  0  0  0  0  0  0  0  0  0  0
    3.7985   11.5934   -8.5111 C   0  0  0  0  0  0  0  0  0  0  0  0
    1.6849   11.8746   -3.0087 C   0  0  0  0  0  0  0  0  0  0  0  0
    1.7394   13.2404   -3.3204 C   0  0  0  0  0  0  0  0  0  0  0  0
    1.7761   14.4194   -3.5855 C   0  0  0  0  0  0  0  0  0  0  0  0
    1.8206   15.7916   -3.8944 C   0  0  0  0  0  0  0  0  0  0  0  0
    1.8556   16.7478   -2.8736 C   0  0  0  0  0  0  0  0  0  0  0  0
    1.8996   18.0873   -3.1802 C   0  0  0  0  0  0  0  0  0  0  0  0
    1.9101   18.5133   -4.5116 C   0  0  0  0  0  0  0  0  0  0  0  0
    1.9552   19.8615   -4.6996 O   0  0  0  0  0  0  0  0  0  0  0  0
    1.9797   20.3577   -6.0152 C   0  0  0  0  0  0  0  0  0  0  0  0
    1.8739   17.5656   -5.5304 C   0  0  0  0  0  0  0  0  0  0  0  0
    1.8287   16.2196   -5.2213 C   0  0  0  0  0  0  0  0  0  0  0  0
    1.1896   11.4361   -1.7688 C   0  0  0  0  0  0  0  0  0  0  0  0
    0.7451   12.3617   -0.8098 C   0  0  0  0  0  0  0  0  0  0  0  0
    0.3615   13.1638    0.0086 C   0  0  0  0  0  0  0  0  0  0  0  0
   -0.0848   14.1023    0.9572 C   0  0  0  0  0  0  0  0  0  0  0  0
   -0.2518   13.7364    2.2970 C   0  0  0  0  0  0  0  0  0  0  0  0
   -0.6876   14.6602    3.2171 C   0  0  0  0  0  0  0  0  0  0  0  0
   -0.9701   15.9735    2.8294 C   0  0  0  0  0  0  0  0  0  0  0  0
   -1.3952   16.8029    3.8215 O   0  0  0  0  0  0  0  0  0  0  0  0
   -1.6915   18.1402    3.5023 C   0  0  0  0  0  0  0  0  0  0  0  0
   -0.8057   16.3413    1.4967 C   0  0  0  0  0  0  0  0  0  0  0  0
   -0.3669   15.4125    0.5729 C   0  0  0  0  0  0  0  0  0  0  0  0
    1.1471   10.0557   -1.5119 C   0  0  0  0  0  0  0  0  0  0  0  0
    0.6756    9.5633   -0.2869 C   0  0  0  0  0  0  0  0  0  0  0  0
    0.2790    9.1436    0.7753 C   0  0  0  0  0  0  0  0  0  0  0  0
   -0.1913    8.6548    2.0083 C   0  0  0  0  0  0  0  0  0  0  0  0
    0.1981    7.3925    2.4691 C   0  0  0  0  0  0  0  0  0  0  0  0
   -0.2715    6.9192    3.6716 C   0  0  0  0  0  0  0  0  0  0  0  0
   -1.1401    7.6893    4.4505 C   0  0  0  0  0  0  0  0  0  0  0  0
   -1.5449    7.1210    5.6203 O   0  0  0  0  0  0  0  0  0  0  0  0
   -2.4120    7.8457    6.4570 C   0  0  0  0  0  0  0  0  0  0  0  0
   -1.5257    8.9481    3.9985 C   0  0  0  0  0  0  0  0  0  0  0  0
   -1.0539    9.4226    2.7896 C   0  0  0  0  0  0  0  0  0  0  0  0
    1.9237    4.2564   -2.3252 C   0  0  0  0  0  0  0  0  0  0  0  0
    1.7665    2.9420   -1.9531 C   0  0  0  0  0  0  0  0  0  0  0  0
    0.0918   -0.2350    0.4713 H   0  0  0  0  0  0  0  0  0  0  0  0
   -1.0500    1.1109    0.2362 H   0  0  0  0  0  0  0  0  0  0  0  0
    0.3046    1.2751    1.3903 H   0  0  0  0  0  0  0  0  0  0  0  0
   -0.4516    3.3622    0.5832 H   0  0  0  0  0  0  0  0  0  0  0  0
   -0.1722    5.6931   -0.0892 H   0  0  0  0  0  0  0  0  0  0  0  0
    3.9401   14.2988   -6.4839 H   0  0  0  0  0  0  0  0  0  0  0  0
    4.8523   15.2927   -8.5650 H   0  0  0  0  0  0  0  0  0  0  0  0
    6.0796   12.5889  -11.8352 H   0  0  0  0  0  0  0  0  0  0  0  0
    4.4303   13.0402  -12.3549 H   0  0  0  0  0  0  0  0  0  0  0  0
    5.7991   14.1323  -12.6774 H   0  0  0  0  0  0  0  0  0  0  0  0
    4.4101   11.5302  -10.5459 H   0  0  0  0  0  0  0  0  0  0  0  0
    3.5049   10.5542   -8.4979 H   0  0  0  0  0  0  0  0  0  0  0  0
    1.8560   16.4224   -1.8435 H   0  0  0  0  0  0  0  0  0  0  0  0
    1.9293   18.8369   -2.4048 H   0  0  0  0  0  0  0  0  0  0  0  0
    2.8626   20.0088   -6.5607 H   0  0  0  0  0  0  0  0  0  0  0  0
    1.0768   20.0782   -6.5681 H   0  0  0  0  0  0  0  0  0  0  0  0
    2.0214   21.4417   -5.9208 H   0  0  0  0  0  0  0  0  0  0  0  0
    1.8794   17.8629   -6.5674 H   0  0  0  0  0  0  0  0  0  0  0  0
    1.7924   15.4871   -6.0147 H   0  0  0  0  0  0  0  0  0  0  0  0
   -0.0284   12.7243    2.6014 H   0  0  0  0  0  0  0  0  0  0  0  0
   -0.8198   14.3957    4.2546 H   0  0  0  0  0  0  0  0  0  0  0  0
   -0.8133   18.6652    3.1126 H   0  0  0  0  0  0  0  0  0  0  0  0
   -2.5085   18.2095    2.7765 H   0  0  0  0  0  0  0  0  0  0  0  0
   -2.0016   18.6046    4.4371 H   0  0  0  0  0  0  0  0  0  0  0  0
   -1.0164   17.3467    1.1672 H   0  0  0  0  0  0  0  0  0  0  0  0
   -0.2454   15.6982   -0.4620 H   0  0  0  0  0  0  0  0  0  0  0  0
    0.8763    6.7973    1.8755 H   0  0  0  0  0  0  0  0  0  0  0  0
    0.0198    5.9484    4.0409 H   0  0  0  0  0  0  0  0  0  0  0  0
   -1.9572    8.7834    6.7928 H   0  0  0  0  0  0  0  0  0  0  0  0
   -3.3643    8.0607    5.9612 H   0  0  0  0  0  0  0  0  0  0  0  0
   -2.5929    7.2059    7.3193 H   0  0  0  0  0  0  0  0  0  0  0  0
   -2.1931    9.5667    4.5782 H   0  0  0  0  0  0  0  0  0  0  0  0
   -1.3600   10.3974    2.4378 H   0  0  0  0  0  0  0  0  0  0  0  0
    2.5847    4.5189   -3.1375 H   0  0  0  0  0  0  0  0  0  0  0  0
    2.2952    2.1511   -2.4616 H   0  0  0  0  0  0  0  0  0  0  0  0
  1  2  1  0  0  0  0
  1 57  1  0  0  0  0
  1 58  1  0  0  0  0
  1 59  1  0  0  0  0
  2  3  1  0  0  0  0
  3  4  2  0  0  0  0
  4  5  1  0  0  0  0
  4 60  1  0  0  0  0
  5  6  2  0  0  0  0
  5 61  1  0  0  0  0
  6  7  1  0  0  0  0
  6 55  1  0  0  0  0
  7  8  3  0  0  0  0
  8  9  1  0  0  0  0
  9 10  2  0  0  0  0
 10 11  1  0  0  0  0
 11 12  1  0  0  0  0
 11 22  2  0  0  0  0
 12 13  3  0  0  0  0
 13 14  1  0  0  0  0
 14 15  2  0  0  0  0
 15 16  1  0  0  0  0
 15 62  1  0  0  0  0
 16 17  2  0  0  0  0
 16 63  1  0  0  0  0
 17 18  1  0  0  0  0
 17 20  1  0  0  0  0
 18 19  1  0  0  0  0
 19 64  1  0  0  0  0
 19 65  1  0  0  0  0
 19 66  1  0  0  0  0
 20 21  2  0  0  0  0
 20 67  1  0  0  0  0
 21 14  1  0  0  0  0
 21 68  1  0  0  0  0
 22 23  1  0  0  0  0
 22 33  1  0  0  0  0
 23 24  3  0  0  0  0
 24 25  1  0  0  0  0
 25 26  2  0  0  0  0
 26 27  1  0  0  0  0
 26 69  1  0  0  0  0
 27 28  2  0  0  0  0
 27 70  1  0  0  0  0
 28 29  1  0  0  0  0
 28 31  1  0  0  0  0
 29 30  1  0  0  0  0
 30 71  1  0  0  0  0
 30 72  1  0  0  0  0
 30 73  1  0  0  0  0
 31 32  2  0  0  0  0
 31 74  1  0  0  0  0
 32 25  1  0  0  0  0
 32 75  1  0  0  0  0
 33 34  1  0  0  0  0
 33 44  2  0  0  0  0
 34 35  3  0  0  0  0
 35 36  1  0  0  0  0
 36 37  2  0  0  0  0
 37 38  1  0  0  0  0
 37 76  1  0  0  0  0
 38 39  2  0  0  0  0
 38 77  1  0  0  0  0
 39 40  1  0  0  0  0
 39 42  1  0  0  0  0
 40 41  1  0  0  0  0
 41 78  1  0  0  0  0
 41 79  1  0  0  0  0
 41 80  1  0  0  0  0
 42 43  2  0  0  0  0
 42 81  1  0  0  0  0
 43 36  1  0  0  0  0
 43 82  1  0  0  0  0
 44 45  1  0  0  0  0
 44  9  1  0  0  0  0
 45 46  3  0  0  0  0
 46 47  1  0  0  0  0
 47 48  2  0  0  0  0
 48 49  1  0  0  0  0
 48 83  1  0  0  0  0
 49 50  2  0  0  0  0
 49 84  1  0  0  0  0
 50 51  1  0  0  0  0
 50 53  1  0  0  0  0
 51 52  1  0  0  0  0
 52 85  1  0  0  0  0
 52 86  1  0  0  0  0
 52 87  1  0  0  0  0
 53 54  2  0  0  0  0
 53 88  1  0  0  0  0
 54 47  1  0  0  0  0
 54 89  1  0  0  0  0
 55 56  2  0  0  0  0
 55 90  1  0  0  0  0
 56  3  1  0  0  0  0
 56 91  1  0  0  0  0
M  END
