
  xtb     03212212083D
 energy: -82.486253382872 gnorm: 0.000127650667 xtb: 6.4.1 (afa7bdf)
 54 60  0     0  0            999 V2000
   -0.9676    2.3302    0.8742 O   0  0  0  0  0  0  0  0  0  0  0  0
   -1.6287    1.1937    0.4704 C   0  0  0  0  0  0  0  0  0  0  0  0
   -0.9436    0.0957   -0.0658 C   0  0  0  0  0  0  0  0  0  0  0  0
    0.4999    0.0288   -0.1446 C   0  0  0  0  0  0  0  0  0  0  0  0
    1.1730   -0.6219   -1.0633 N   0  0  0  0  0  0  0  0  0  0  0  0
    2.4886   -0.4637   -0.7501 C   0  0  0  0  0  0  0  0  0  0  0  0
    3.6355   -0.9636   -1.4293 C   0  0  0  0  0  0  0  0  0  0  0  0
    3.5131   -1.7295   -2.5933 C   0  0  0  0  0  0  0  0  0  0  0  0
    4.6299   -2.2036   -3.2346 C   0  0  0  0  0  0  0  0  0  0  0  0
    5.8910   -1.9158   -2.7158 C   0  0  0  0  0  0  0  0  0  0  0  0
    6.0248   -1.1636   -1.5725 C   0  0  0  0  0  0  0  0  0  0  0  0
    4.9083   -0.6594   -0.8876 C   0  0  0  0  0  0  0  0  0  0  0  0
    5.0287    0.1410    0.3187 C   0  0  0  0  0  0  0  0  0  0  0  0
    6.2681    0.4643    0.8891 C   0  0  0  0  0  0  0  0  0  0  0  0
    6.3663    1.2292    2.0279 C   0  0  0  0  0  0  0  0  0  0  0  0
    5.2215    1.7127    2.6568 C   0  0  0  0  0  0  0  0  0  0  0  0
    3.9881    1.4171    2.1332 C   0  0  0  0  0  0  0  0  0  0  0  0
    3.8709    0.6371    0.9743 C   0  0  0  0  0  0  0  0  0  0  0  0
    2.6192    0.3043    0.4025 C   0  0  0  0  0  0  0  0  0  0  0  0
    1.3387    0.6265    0.7716 N   0  0  0  0  0  0  0  0  0  0  0  0
   -1.6980   -0.9801   -0.5366 C   0  0  0  0  0  0  0  0  0  0  0  0
   -3.0680   -1.0131   -0.4327 C   0  0  0  0  0  0  0  0  0  0  0  0
   -3.7523    0.0732    0.1508 C   0  0  0  0  0  0  0  0  0  0  0  0
   -3.0109    1.1837    0.5882 C   0  0  0  0  0  0  0  0  0  0  0  0
   -3.7123    2.3634    1.2026 C   0  0  0  0  0  0  0  0  0  0  0  0
   -4.9738    1.8805    1.9027 C   0  0  0  0  0  0  0  0  0  0  0  0
   -5.8391    1.1376    0.8955 C   0  0  0  0  0  0  0  0  0  0  0  0
   -5.1115    0.0553    0.2750 N   0  0  0  0  0  0  0  0  0  0  0  0
   -5.9129   -1.0217   -0.2585 C   0  0  0  0  0  0  0  0  0  0  0  0
   -5.2136   -1.7162   -1.4185 C   0  0  0  0  0  0  0  0  0  0  0  0
   -3.8463   -2.1917   -0.9477 C   0  0  0  0  0  0  0  0  0  0  0  0
   -0.1062    2.3582    0.4402 H   0  0  0  0  0  0  0  0  0  0  0  0
    2.5187   -1.9287   -2.9615 H   0  0  0  0  0  0  0  0  0  0  0  0
    4.5383   -2.7947   -4.1340 H   0  0  0  0  0  0  0  0  0  0  0  0
    6.7736   -2.2870   -3.2169 H   0  0  0  0  0  0  0  0  0  0  0  0
    7.0202   -0.9650   -1.2075 H   0  0  0  0  0  0  0  0  0  0  0  0
    7.1793    0.1108    0.4337 H   0  0  0  0  0  0  0  0  0  0  0  0
    7.3390    1.4580    2.4382 H   0  0  0  0  0  0  0  0  0  0  0  0
    5.3066    2.3146    3.5496 H   0  0  0  0  0  0  0  0  0  0  0  0
    3.0936    1.7877    2.6148 H   0  0  0  0  0  0  0  0  0  0  0  0
    1.0600    1.0653    1.6340 H   0  0  0  0  0  0  0  0  0  0  0  0
   -1.1671   -1.8084   -0.9789 H   0  0  0  0  0  0  0  0  0  0  0  0
   -3.9719    3.0897    0.4264 H   0  0  0  0  0  0  0  0  0  0  0  0
   -3.0408    2.8586    1.9040 H   0  0  0  0  0  0  0  0  0  0  0  0
   -4.7027    1.2039    2.7155 H   0  0  0  0  0  0  0  0  0  0  0  0
   -5.5346    2.7169    2.3215 H   0  0  0  0  0  0  0  0  0  0  0  0
   -6.7161    0.7146    1.3980 H   0  0  0  0  0  0  0  0  0  0  0  0
   -6.1981    1.8406    0.1277 H   0  0  0  0  0  0  0  0  0  0  0  0
   -6.1305   -1.7555    0.5330 H   0  0  0  0  0  0  0  0  0  0  0  0
   -6.8669   -0.6028   -0.5970 H   0  0  0  0  0  0  0  0  0  0  0  0
   -5.8234   -2.5506   -1.7668 H   0  0  0  0  0  0  0  0  0  0  0  0
   -5.0881   -1.0108   -2.2422 H   0  0  0  0  0  0  0  0  0  0  0  0
   -3.2991   -2.6682   -1.7621 H   0  0  0  0  0  0  0  0  0  0  0  0
   -3.9712   -2.9337   -0.1527 H   0  0  0  0  0  0  0  0  0  0  0  0
  1  2  1  0  0  0  0
  2  3  2  0  0  0  0
  3  4  1  0  0  0  0
  4  5  2  0  0  0  0
  5  6  1  0  0  0  0
  6  7  2  0  0  0  0
  7  8  1  0  0  0  0
  8  9  2  0  0  0  0
  9 10  1  0  0  0  0
 10 11  2  0  0  0  0
 11 12  1  0  0  0  0
 12 13  2  0  0  0  0
 13 14  1  0  0  0  0
 14 15  2  0  0  0  0
 15 16  1  0  0  0  0
 16 17  2  0  0  0  0
 17 18  1  0  0  0  0
 18 19  2  0  0  0  0
 19 20  1  0  0  0  0
  3 21  1  0  0  0  0
 21 22  2  0  0  0  0
 22 23  1  0  0  0  0
 23 24  2  0  0  0  0
 24 25  1  0  0  0  0
 25 26  1  0  0  0  0
 26 27  1  0  0  0  0
 27 28  1  0  0  0  0
 28 29  1  0  0  0  0
 29 30  1  0  0  0  0
 30 31  1  0  0  0  0
 24  2  1  0  0  0  0
 20  4  1  0  0  0  0
 31 22  1  0  0  0  0
 19  6  1  0  0  0  0
 28 23  1  0  0  0  0
 12  7  1  0  0  0  0
 18 13  1  0  0  0  0
  1 32  1  0  0  0  0
  8 33  1  0  0  0  0
  9 34  1  0  0  0  0
 10 35  1  0  0  0  0
 11 36  1  0  0  0  0
 14 37  1  0  0  0  0
 15 38  1  0  0  0  0
 16 39  1  0  0  0  0
 17 40  1  0  0  0  0
 20 41  1  0  0  0  0
 21 42  1  0  0  0  0
 25 43  1  0  0  0  0
 25 44  1  0  0  0  0
 26 45  1  0  0  0  0
 26 46  1  0  0  0  0
 27 47  1  0  0  0  0
 27 48  1  0  0  0  0
 29 49  1  0  0  0  0
 29 50  1  0  0  0  0
 30 51  1  0  0  0  0
 30 52  1  0  0  0  0
 31 53  1  0  0  0  0
 31 54  1  0  0  0  0
M  END
