
  xtb     03212212183D
 energy: -48.753974879374 gnorm: 0.000082979750 xtb: 6.4.1 (afa7bdf)
 28 30  0     0  0            999 V2000
    7.1740   -0.0997   -0.1374 Cl  0  0  0  0  0  0  0  0  0  0  0  0
    5.4484   -0.1367   -0.1131 C   0  0  0  0  0  0  0  0  0  0  0  0
    4.7745   -1.2029   -0.6897 C   0  0  0  0  0  0  0  0  0  0  0  0
    3.3951   -1.2233   -0.6652 C   0  0  0  0  0  0  0  0  0  0  0  0
    2.6613   -0.1909   -0.0707 C   0  0  0  0  0  0  0  0  0  0  0  0
    1.2165   -0.2670   -0.0755 C   0  0  0  0  0  0  0  0  0  0  0  0
    0.3662    0.6322    0.4478 C   0  0  0  0  0  0  0  0  0  0  0  0
   -1.0563    0.4835    0.4020 C   0  0  0  0  0  0  0  0  0  0  0  0
   -1.9060    1.3323    0.8972 N   0  0  0  0  0  0  0  0  0  0  0  0
   -3.1420    0.8059    0.6360 C   0  0  0  0  0  0  0  0  0  0  0  0
   -4.4220    1.2638    0.9246 C   0  0  0  0  0  0  0  0  0  0  0  0
   -5.4798    0.4791    0.5148 C   0  0  0  0  0  0  0  0  0  0  0  0
   -5.2843   -0.7260   -0.1620 C   0  0  0  0  0  0  0  0  0  0  0  0
   -4.0193   -1.1996   -0.4589 C   0  0  0  0  0  0  0  0  0  0  0  0
   -2.9580   -0.4157   -0.0496 C   0  0  0  0  0  0  0  0  0  0  0  0
   -1.6246   -0.6089   -0.1920 O   0  0  0  0  0  0  0  0  0  0  0  0
    3.3681    0.8713    0.5029 C   0  0  0  0  0  0  0  0  0  0  0  0
    4.7469    0.9015    0.4838 C   0  0  0  0  0  0  0  0  0  0  0  0
    5.3288   -2.0050   -1.1513 H   0  0  0  0  0  0  0  0  0  0  0  0
    2.8709   -2.0541   -1.1146 H   0  0  0  0  0  0  0  0  0  0  0  0
    0.7979   -1.1440   -0.5533 H   0  0  0  0  0  0  0  0  0  0  0  0
    0.6919    1.5336    0.9417 H   0  0  0  0  0  0  0  0  0  0  0  0
   -4.5670    2.1949    1.4472 H   0  0  0  0  0  0  0  0  0  0  0  0
   -6.4895    0.8016    0.7208 H   0  0  0  0  0  0  0  0  0  0  0  0
   -6.1450   -1.3044   -0.4619 H   0  0  0  0  0  0  0  0  0  0  0  0
   -3.8640   -2.1299   -0.9813 H   0  0  0  0  0  0  0  0  0  0  0  0
    2.8344    1.6836    0.9695 H   0  0  0  0  0  0  0  0  0  0  0  0
    5.2827    1.7252    0.9290 H   0  0  0  0  0  0  0  0  0  0  0  0
  1  2  1  0  0  0  0
  2  3  2  0  0  0  0
  3  4  1  0  0  0  0
  4  5  2  0  0  0  0
  5  6  1  0  0  0  0
  6  7  2  0  0  0  0
  7  8  1  0  0  0  0
  8  9  2  0  0  0  0
  9 10  1  0  0  0  0
 10 11  2  0  0  0  0
 11 12  1  0  0  0  0
 12 13  2  0  0  0  0
 13 14  1  0  0  0  0
 14 15  2  0  0  0  0
 15 16  1  0  0  0  0
  5 17  1  0  0  0  0
 17 18  2  0  0  0  0
 18  2  1  0  0  0  0
 16  8  1  0  0  0  0
 15 10  1  0  0  0  0
  3 19  1  0  0  0  0
  4 20  1  0  0  0  0
  6 21  1  0  0  0  0
  7 22  1  0  0  0  0
 11 23  1  0  0  0  0
 12 24  1  0  0  0  0
 13 25  1  0  0  0  0
 14 26  1  0  0  0  0
 17 27  1  0  0  0  0
 18 28  1  0  0  0  0
M  END
