
  xtb     03212210413D
 energy: -73.576343825326 gnorm: 0.000135140689 xtb: 6.4.1 (afa7bdf)
 44 48  0     0  0            999 V2000
    1.6090   -2.0345    0.9654 F   0  0  0  0  0  0  0  0  0  0  0  0
    0.6808   -1.7509   -0.0255 B   0  0  0  0  0  4  0  0  0  0  0  0
    1.0534   -2.4080   -1.1983 F   0  0  0  0  0  0  0  0  0  0  0  0
   -0.6986   -2.2543    0.3980 N   0  0  0  0  0  0  0  0  0  0  0  0
   -1.0091   -3.5148    0.7213 C   0  0  0  0  0  0  0  0  0  0  0  0
   -2.3768   -3.6205    0.9457 C   0  0  0  0  0  0  0  0  0  0  0  0
   -2.9181   -2.3615    0.7430 C   0  0  0  0  0  0  0  0  0  0  0  0
   -1.8515   -1.5117    0.4061 C   0  0  0  0  0  0  0  0  0  0  0  0
   -1.8089   -0.1416    0.0962 C   0  0  0  0  0  0  0  0  0  0  0  0
   -3.0461    0.6508    0.1300 C   0  0  0  0  0  0  0  0  0  0  0  0
   -3.8423    0.6611    1.2727 C   0  0  0  0  0  0  0  0  0  0  0  0
   -5.0074    1.4048    1.3058 C   0  0  0  0  0  0  0  0  0  0  0  0
   -5.3979    2.1386    0.1978 C   0  0  0  0  0  0  0  0  0  0  0  0
   -4.6147    2.1284   -0.9446 C   0  0  0  0  0  0  0  0  0  0  0  0
   -3.4442    1.3931   -0.9792 C   0  0  0  0  0  0  0  0  0  0  0  0
   -0.6027    0.4609   -0.2149 C   0  0  0  0  0  0  0  0  0  0  0  0
   -0.3511    1.8368   -0.4396 C   0  0  0  0  0  0  0  0  0  0  0  0
    0.9903    1.9809   -0.6310 C   0  0  0  0  0  0  0  0  0  0  0  0
    1.5826    0.6838   -0.5289 C   0  0  0  0  0  0  0  0  0  0  0  0
    2.9000    0.4753   -0.6765 N   0  0  0  0  0  0  0  0  0  0  0  0
    3.5909   -0.7856   -0.7983 C   0  0  0  0  0  0  0  0  0  0  0  0
    4.5323   -0.9729    0.3957 C   0  0  0  0  0  0  0  0  0  0  0  0
    5.1829    0.2378    0.7593 O   0  0  0  0  0  0  0  0  0  0  0  0
    5.2196    1.1655   -0.2891 C   0  0  0  0  0  0  0  0  0  0  0  0
    3.7988    1.6199   -0.6650 C   0  0  0  0  0  0  0  0  0  0  0  0
    0.6126   -0.2202   -0.2765 N   0  0  0  0  0  4  0  0  0  0  0  0
   -0.2489   -4.2696    0.7732 H   0  0  0  0  0  0  0  0  0  0  0  0
   -2.9019   -4.5141    1.2203 H   0  0  0  0  0  0  0  0  0  0  0  0
   -3.9492   -2.0760    0.8141 H   0  0  0  0  0  0  0  0  0  0  0  0
   -3.5289    0.0996    2.1400 H   0  0  0  0  0  0  0  0  0  0  0  0
   -5.6136    1.4120    2.1997 H   0  0  0  0  0  0  0  0  0  0  0  0
   -6.3101    2.7157    0.2241 H   0  0  0  0  0  0  0  0  0  0  0  0
   -4.9179    2.6949   -1.8128 H   0  0  0  0  0  0  0  0  0  0  0  0
   -2.8410    1.3706   -1.8748 H   0  0  0  0  0  0  0  0  0  0  0  0
   -1.0958    2.6080   -0.4392 H   0  0  0  0  0  0  0  0  0  0  0  0
    1.5094    2.8925   -0.8464 H   0  0  0  0  0  0  0  0  0  0  0  0
    2.9015   -1.6157   -0.8491 H   0  0  0  0  0  0  0  0  0  0  0  0
    4.1604   -0.7665   -1.7356 H   0  0  0  0  0  0  0  0  0  0  0  0
    5.2831   -1.7368    0.1510 H   0  0  0  0  0  0  0  0  0  0  0  0
    3.9670   -1.2955    1.2725 H   0  0  0  0  0  0  0  0  0  0  0  0
    5.7444    0.7535   -1.1633 H   0  0  0  0  0  0  0  0  0  0  0  0
    5.7904    2.0198    0.0806 H   0  0  0  0  0  0  0  0  0  0  0  0
    3.4534    2.3325    0.0878 H   0  0  0  0  0  0  0  0  0  0  0  0
    3.8144    2.1140   -1.6457 H   0  0  0  0  0  0  0  0  0  0  0  0
  1  2  1  0  0  0  0
  2  3  1  0  0  0  0
  2  4  1  0  0  0  0
  4  5  1  0  0  0  0
  5  6  2  0  0  0  0
  6  7  1  0  0  0  0
  7  8  2  0  0  0  0
  8  9  1  0  0  0  0
  9 10  1  0  0  0  0
 10 11  2  0  0  0  0
 11 12  1  0  0  0  0
 12 13  2  0  0  0  0
 13 14  1  0  0  0  0
 14 15  2  0  0  0  0
  9 16  2  0  0  0  0
 16 17  1  0  0  0  0
 17 18  2  0  0  0  0
 18 19  1  0  0  0  0
 19 20  1  0  0  0  0
 20 21  1  0  0  0  0
 21 22  1  0  0  0  0
 22 23  1  0  0  0  0
 23 24  1  0  0  0  0
 24 25  1  0  0  0  0
 19 26  2  0  0  0  0
 26  2  1  0  0  0  0
  8  4  1  0  0  0  0
 15 10  1  0  0  0  0
 26 16  1  0  0  0  0
 25 20  1  0  0  0  0
  5 27  1  0  0  0  0
  6 28  1  0  0  0  0
  7 29  1  0  0  0  0
 11 30  1  0  0  0  0
 12 31  1  0  0  0  0
 13 32  1  0  0  0  0
 14 33  1  0  0  0  0
 15 34  1  0  0  0  0
 17 35  1  0  0  0  0
 18 36  1  0  0  0  0
 21 37  1  0  0  0  0
 21 38  1  0  0  0  0
 22 39  1  0  0  0  0
 22 40  1  0  0  0  0
 24 41  1  0  0  0  0
 24 42  1  0  0  0  0
 25 43  1  0  0  0  0
 25 44  1  0  0  0  0
M  CHG  1   2  -1
M  CHG  1  26   1
M  END
