
  xtb     03212211003D
 energy: -141.194557828856 gnorm: 0.000170439063 xtb: 6.4.1 (afa7bdf)
 88 94  0     0  0            999 V2000
   10.6361    3.4552    0.5738 O   0  0  0  0  0  0  0  0  0  0  0  0
    9.6508    3.7429   -0.0502 C   0  0  0  0  0  0  0  0  0  0  0  0
    9.1089    4.9677   -0.0119 O   0  0  0  0  0  0  0  0  0  0  0  0
    8.8785    2.8288   -0.9668 C   0  0  0  0  0  0  0  0  0  0  0  0
    9.4039    1.3962   -0.9337 C   0  0  0  0  0  0  0  0  0  0  0  0
    9.0016    0.6974    0.3688 C   0  0  0  0  0  0  0  0  0  0  0  0
    7.6009    0.6065    0.5243 O   0  0  0  0  0  0  0  0  0  0  0  0
    6.9014   -0.3424   -0.1600 C   0  0  0  0  0  0  0  0  0  0  0  0
    7.4494   -1.3216   -0.9811 C   0  0  0  0  0  0  0  0  0  0  0  0
    6.6180   -2.2443   -1.5956 C   0  0  0  0  0  0  0  0  0  0  0  0
    5.2506   -2.2033   -1.4137 C   0  0  0  0  0  0  0  0  0  0  0  0
    4.6908   -1.2236   -0.5982 C   0  0  0  0  0  0  0  0  0  0  0  0
    3.2234   -1.1763   -0.3804 C   0  0  0  0  0  0  0  0  0  0  0  0
    2.4217   -0.7139   -1.4117 C   0  0  0  0  0  0  0  0  0  0  0  0
    1.0909   -0.6196   -1.3820 N   0  0  0  0  0  0  0  0  0  0  0  0
    0.6524   -0.0990   -2.5304 C   0  0  0  0  0  0  0  0  0  0  0  0
   -0.6575    0.1251   -2.8922 C   0  0  0  0  0  0  0  0  0  0  0  0
   -1.8241   -0.1300   -2.1736 C   0  0  0  0  0  0  0  0  0  0  0  0
   -3.1462    0.0835   -2.6396 C   0  0  0  0  0  0  0  0  0  0  0  0
   -4.0097   -0.3013   -1.6504 C   0  0  0  0  0  0  0  0  0  0  0  0
   -3.2337   -0.7498   -0.5523 C   0  0  0  0  0  0  0  0  0  0  0  0
   -1.9249   -0.6327   -0.9126 N   0  0  0  0  0  0  0  0  0  0  0  0
   -3.7024   -1.2288    0.6782 C   0  0  0  0  0  0  0  0  0  0  0  0
   -5.1744   -1.2503    0.8639 C   0  0  0  0  0  0  0  0  0  0  0  0
   -5.8735   -2.4485    0.8861 C   0  0  0  0  0  0  0  0  0  0  0  0
   -7.2485   -2.4395    1.0508 C   0  0  0  0  0  0  0  0  0  0  0  0
   -7.9293   -1.2474    1.1827 C   0  0  0  0  0  0  0  0  0  0  0  0
   -7.2383   -0.0349    1.1484 C   0  0  0  0  0  0  0  0  0  0  0  0
   -8.0099    1.0808    1.2892 O   0  0  0  0  0  0  0  0  0  0  0  0
   -7.4431    2.3568    1.0896 C   0  0  0  0  0  0  0  0  0  0  0  0
   -7.1606    2.6591   -0.3859 C   0  0  0  0  0  0  0  0  0  0  0  0
   -8.4364    2.5775   -1.2217 C   0  0  0  0  0  0  0  0  0  0  0  0
   -9.4347    3.6725   -0.9388 C   0  0  0  0  0  0  0  0  0  0  0  0
  -10.6232    3.5678   -1.0760 O   0  0  0  0  0  0  0  0  0  0  0  0
   -8.8641    4.8216   -0.5469 O   0  0  0  0  0  0  0  0  0  0  0  0
   -5.8582   -0.0459    0.9931 C   0  0  0  0  0  0  0  0  0  0  0  0
   -2.8996   -1.6469    1.7264 C   0  0  0  0  0  0  0  0  0  0  0  0
   -1.5644   -1.6783    1.7195 N   0  0  0  0  0  0  0  0  0  0  0  0
   -1.1201   -2.0937    2.9068 C   0  0  0  0  0  0  0  0  0  0  0  0
    0.1926   -2.2835    3.2817 C   0  0  0  0  0  0  0  0  0  0  0  0
    1.3548   -2.0951    2.5380 C   0  0  0  0  0  0  0  0  0  0  0  0
    2.6762   -2.3545    2.9864 C   0  0  0  0  0  0  0  0  0  0  0  0
    3.5353   -2.0549    1.9658 C   0  0  0  0  0  0  0  0  0  0  0  0
    2.7587   -1.5962    0.8712 C   0  0  0  0  0  0  0  0  0  0  0  0
    1.4530   -1.6401    1.2588 N   0  0  0  0  0  0  0  0  0  0  0  0
   -2.2465   -2.3707    3.8895 C   0  0  0  0  0  0  0  0  0  0  0  0
   -3.4915   -2.0908    3.0538 C   0  0  0  0  0  0  0  0  0  0  0  0
    1.7838    0.2455   -3.4861 C   0  0  0  0  0  0  0  0  0  0  0  0
    3.0184   -0.2153   -2.7175 C   0  0  0  0  0  0  0  0  0  0  0  0
    5.5184   -0.3042    0.0222 C   0  0  0  0  0  0  0  0  0  0  0  0
    9.6183    5.5458    0.5778 H   0  0  0  0  0  0  0  0  0  0  0  0
    7.8292    2.8543   -0.6654 H   0  0  0  0  0  0  0  0  0  0  0  0
    8.9419    3.2464   -1.9739 H   0  0  0  0  0  0  0  0  0  0  0  0
   10.4923    1.4029   -0.9988 H   0  0  0  0  0  0  0  0  0  0  0  0
    9.0004    0.8476   -1.7861 H   0  0  0  0  0  0  0  0  0  0  0  0
    9.4683   -0.2920    0.4364 H   0  0  0  0  0  0  0  0  0  0  0  0
    9.3407    1.2944    1.2187 H   0  0  0  0  0  0  0  0  0  0  0  0
    8.5133   -1.3875   -1.1448 H   0  0  0  0  0  0  0  0  0  0  0  0
    7.0547   -3.0070   -2.2238 H   0  0  0  0  0  0  0  0  0  0  0  0
    4.6131   -2.9358   -1.8857 H   0  0  0  0  0  0  0  0  0  0  0  0
   -0.8110    0.5460   -3.8769 H   0  0  0  0  0  0  0  0  0  0  0  0
   -3.3980    0.4728   -3.6071 H   0  0  0  0  0  0  0  0  0  0  0  0
   -5.0818   -0.2897   -1.6812 H   0  0  0  0  0  0  0  0  0  0  0  0
   -1.1575   -0.8957   -0.3113 H   0  0  0  0  0  0  0  0  0  0  0  0
   -5.3434   -3.3804    0.7584 H   0  0  0  0  0  0  0  0  0  0  0  0
   -7.7950   -3.3707    1.0690 H   0  0  0  0  0  0  0  0  0  0  0  0
   -8.9999   -1.2232    1.3103 H   0  0  0  0  0  0  0  0  0  0  0  0
   -8.1968    3.0509    1.4709 H   0  0  0  0  0  0  0  0  0  0  0  0
   -6.5303    2.4799    1.6856 H   0  0  0  0  0  0  0  0  0  0  0  0
   -6.7251    3.6553   -0.4605 H   0  0  0  0  0  0  0  0  0  0  0  0
   -6.4420    1.9361   -0.7752 H   0  0  0  0  0  0  0  0  0  0  0  0
   -8.9376    1.6213   -1.0618 H   0  0  0  0  0  0  0  0  0  0  0  0
   -8.1872    2.6508   -2.2838 H   0  0  0  0  0  0  0  0  0  0  0  0
   -9.5455    5.4982   -0.4087 H   0  0  0  0  0  0  0  0  0  0  0  0
   -5.2845    0.8680    0.9736 H   0  0  0  0  0  0  0  0  0  0  0  0
    0.3489   -2.6388    4.2914 H   0  0  0  0  0  0  0  0  0  0  0  0
    2.9283   -2.7256    3.9608 H   0  0  0  0  0  0  0  0  0  0  0  0
    4.6041   -2.1410    1.9661 H   0  0  0  0  0  0  0  0  0  0  0  0
    0.6859   -1.3710    0.6599 H   0  0  0  0  0  0  0  0  0  0  0  0
   -2.1995   -3.4000    4.2473 H   0  0  0  0  0  0  0  0  0  0  0  0
   -2.1637   -1.7096    4.7538 H   0  0  0  0  0  0  0  0  0  0  0  0
   -4.1217   -1.3042    3.4718 H   0  0  0  0  0  0  0  0  0  0  0  0
   -4.1126   -2.9768    2.9223 H   0  0  0  0  0  0  0  0  0  0  0  0
    1.7923    1.3176   -3.6895 H   0  0  0  0  0  0  0  0  0  0  0  0
    1.6567   -0.2765   -4.4354 H   0  0  0  0  0  0  0  0  0  0  0  0
    3.7303    0.5890   -2.5264 H   0  0  0  0  0  0  0  0  0  0  0  0
    3.5529   -1.0168   -3.2279 H   0  0  0  0  0  0  0  0  0  0  0  0
    5.1052    0.4573    0.6656 H   0  0  0  0  0  0  0  0  0  0  0  0
  1  2  2  0  0  0  0
  2  3  1  0  0  0  0
  2  4  1  0  0  0  0
  4  5  1  0  0  0  0
  5  6  1  0  0  0  0
  6  7  1  0  0  0  0
  7  8  1  0  0  0  0
  8  9  2  0  0  0  0
  9 10  1  0  0  0  0
 10 11  2  0  0  0  0
 11 12  1  0  0  0  0
 12 13  1  0  0  0  0
 13 14  1  0  0  0  0
 14 15  2  0  0  0  0
 15 16  1  0  0  0  0
 16 17  2  0  0  0  0
 17 18  1  0  0  0  0
 18 19  2  0  0  0  0
 19 20  1  0  0  0  0
 20 21  2  0  0  0  0
 21 22  1  0  0  0  0
 21 23  1  0  0  0  0
 23 24  1  0  0  0  0
 24 25  2  0  0  0  0
 25 26  1  0  0  0  0
 26 27  2  0  0  0  0
 27 28  1  0  0  0  0
 28 29  1  0  0  0  0
 29 30  1  0  0  0  0
 30 31  1  0  0  0  0
 31 32  1  0  0  0  0
 32 33  1  0  0  0  0
 33 34  2  0  0  0  0
 33 35  1  0  0  0  0
 28 36  2  0  0  0  0
 23 37  2  0  0  0  0
 37 38  1  0  0  0  0
 38 39  2  0  0  0  0
 39 40  1  0  0  0  0
 40 41  2  0  0  0  0
 41 42  1  0  0  0  0
 42 43  2  0  0  0  0
 43 44  1  0  0  0  0
 44 45  1  0  0  0  0
 39 46  1  0  0  0  0
 46 47  1  0  0  0  0
 16 48  1  0  0  0  0
 48 49  1  0  0  0  0
 12 50  2  0  0  0  0
 50  8  1  0  0  0  0
 44 13  2  0  0  0  0
 49 14  1  0  0  0  0
 22 18  1  0  0  0  0
 36 24  1  0  0  0  0
 47 37  1  0  0  0  0
 45 41  1  0  0  0  0
  3 51  1  0  0  0  0
  4 52  1  0  0  0  0
  4 53  1  0  0  0  0
  5 54  1  0  0  0  0
  5 55  1  0  0  0  0
  6 56  1  0  0  0  0
  6 57  1  0  0  0  0
  9 58  1  0  0  0  0
 10 59  1  0  0  0  0
 11 60  1  0  0  0  0
 17 61  1  0  0  0  0
 19 62  1  0  0  0  0
 20 63  1  0  0  0  0
 22 64  1  0  0  0  0
 25 65  1  0  0  0  0
 26 66  1  0  0  0  0
 27 67  1  0  0  0  0
 30 68  1  0  0  0  0
 30 69  1  0  0  0  0
 31 70  1  0  0  0  0
 31 71  1  0  0  0  0
 32 72  1  0  0  0  0
 32 73  1  0  0  0  0
 35 74  1  0  0  0  0
 36 75  1  0  0  0  0
 40 76  1  0  0  0  0
 42 77  1  0  0  0  0
 43 78  1  0  0  0  0
 45 79  1  0  0  0  0
 46 80  1  0  0  0  0
 46 81  1  0  0  0  0
 47 82  1  0  0  0  0
 47 83  1  0  0  0  0
 48 84  1  0  0  0  0
 48 85  1  0  0  0  0
 49 86  1  0  0  0  0
 49 87  1  0  0  0  0
 50 88  1  0  0  0  0
M  END
