
  xtb     03212212033D
 energy: -71.735885854783 gnorm: 0.000262404854 xtb: 6.4.1 (afa7bdf)
 36 39  0     0  0            999 V2000
   -4.6505   -2.1457    0.5290 C   0  0  0  0  0  0  0  0  0  0  0  0
   -3.6880   -1.0125    0.3940 C   0  0  0  0  0  0  0  0  0  0  0  0
   -4.1397    0.2959    0.3834 C   0  0  0  0  0  0  0  0  0  0  0  0
   -3.2175    1.3321    0.2568 C   0  0  0  0  0  0  0  0  0  0  0  0
   -3.6976    2.7613    0.2233 C   0  0  0  0  0  0  0  0  0  0  0  0
   -4.2785    3.0602   -0.9550 F   0  0  0  0  0  0  0  0  0  0  0  0
   -4.6322    2.9952    1.1625 F   0  0  0  0  0  0  0  0  0  0  0  0
   -2.7253    3.6510    0.4120 F   0  0  0  0  0  0  0  0  0  0  0  0
   -1.9198    1.1522    0.1392 N   0  0  0  0  0  0  0  0  0  0  0  0
   -1.4702   -0.0972    0.1485 C   0  0  0  0  0  0  0  0  0  0  0  0
   -2.2998   -1.2405    0.2737 C   0  0  0  0  0  0  0  0  0  0  0  0
   -1.6985   -2.5350    0.2708 C   0  0  0  0  0  0  0  0  0  0  0  0
   -0.3539   -2.6826    0.1498 C   0  0  0  0  0  0  0  0  0  0  0  0
    0.4669   -1.5428    0.0245 C   0  0  0  0  0  0  0  0  0  0  0  0
    1.7679   -1.4463   -0.1035 N   0  0  0  0  0  0  0  0  0  0  0  0
    2.0521   -0.1170   -0.1846 C   0  0  0  0  0  0  0  0  0  0  0  0
    3.4190    0.3496   -0.3348 C   0  0  0  0  0  0  0  0  0  0  0  0
    3.7267    1.7081   -0.4031 C   0  0  0  0  0  0  0  0  0  0  0  0
    5.0357    2.1247   -0.5465 C   0  0  0  0  0  0  0  0  0  0  0  0
    6.0489    1.1811   -0.6229 C   0  0  0  0  0  0  0  0  0  0  0  0
    7.6869    1.7028   -0.8025 Cl  0  0  0  0  0  0  0  0  0  0  0  0
    5.7639   -0.1745   -0.5568 C   0  0  0  0  0  0  0  0  0  0  0  0
    4.4537   -0.5832   -0.4132 C   0  0  0  0  0  0  0  0  0  0  0  0
    0.8837    0.6211   -0.1034 C   0  0  0  0  0  0  0  0  0  0  0  0
   -0.1233   -0.2808    0.0289 N   0  0  0  0  0  0  0  0  0  0  0  0
   -4.5899   -2.8008   -0.3389 H   0  0  0  0  0  0  0  0  0  0  0  0
   -5.6675   -1.7736    0.6137 H   0  0  0  0  0  0  0  0  0  0  0  0
   -4.4205   -2.7367    1.4143 H   0  0  0  0  0  0  0  0  0  0  0  0
   -5.1903    0.5218    0.4750 H   0  0  0  0  0  0  0  0  0  0  0  0
   -2.3310   -3.4020    0.3667 H   0  0  0  0  0  0  0  0  0  0  0  0
    0.1206   -3.6496    0.1454 H   0  0  0  0  0  0  0  0  0  0  0  0
    2.9409    2.4445   -0.3434 H   0  0  0  0  0  0  0  0  0  0  0  0
    5.2739    3.1756   -0.5991 H   0  0  0  0  0  0  0  0  0  0  0  0
    6.5628   -0.8970   -0.6175 H   0  0  0  0  0  0  0  0  0  0  0  0
    4.2046   -1.6309   -0.3590 H   0  0  0  0  0  0  0  0  0  0  0  0
    0.6856    1.6714   -0.1275 H   0  0  0  0  0  0  0  0  0  0  0  0
  1  2  1  0  0  0  0
  2  3  2  0  0  0  0
  3  4  1  0  0  0  0
  4  5  1  0  0  0  0
  5  6  1  0  0  0  0
  5  7  1  0  0  0  0
  5  8  1  0  0  0  0
  4  9  2  0  0  0  0
  9 10  1  0  0  0  0
 10 11  2  0  0  0  0
 11 12  1  0  0  0  0
 12 13  2  0  0  0  0
 13 14  1  0  0  0  0
 14 15  2  0  0  0  0
 15 16  1  0  0  0  0
 16 17  1  0  0  0  0
 17 18  2  0  0  0  0
 18 19  1  0  0  0  0
 19 20  2  0  0  0  0
 20 21  1  0  0  0  0
 20 22  1  0  0  0  0
 22 23  2  0  0  0  0
 16 24  2  0  0  0  0
 24 25  1  0  0  0  0
 11  2  1  0  0  0  0
 25 14  1  0  0  0  0
 25 10  1  0  0  0  0
 23 17  1  0  0  0  0
  1 26  1  0  0  0  0
  1 27  1  0  0  0  0
  1 28  1  0  0  0  0
  3 29  1  0  0  0  0
 12 30  1  0  0  0  0
 13 31  1  0  0  0  0
 18 32  1  0  0  0  0
 19 33  1  0  0  0  0
 22 34  1  0  0  0  0
 23 35  1  0  0  0  0
 24 36  1  0  0  0  0
M  END
