
  xtb     03212212123D
 energy: -113.526575990682 gnorm: 0.000213643065 xtb: 6.4.1 (afa7bdf)
 85 87  0     0  0            999 V2000
    8.8184    2.8998   -3.2117 C   0  0  0  0  0  0  0  0  0  0  0  0
    8.5807    1.5836   -3.9427 C   0  0  0  0  0  0  0  0  0  0  0  0
    7.2993    0.8726   -3.5043 C   0  0  0  0  0  0  0  0  0  0  0  0
    7.2628    0.4647   -2.0307 C   0  0  0  0  0  0  0  0  0  0  0  0
    8.3430   -0.5500   -1.6598 C   0  0  0  0  0  0  0  0  0  0  0  0
    8.1605   -1.1259   -0.2549 C   0  0  0  0  0  0  0  0  0  0  0  0
    8.4163   -0.0990    0.8467 C   0  0  0  0  0  0  0  0  0  0  0  0
    8.3875   -0.7018    2.2525 C   0  0  0  0  0  0  0  0  0  0  0  0
    7.0474   -1.3207    2.6558 C   0  0  0  0  0  0  0  0  0  0  0  0
    5.9034   -0.3088    2.6697 C   0  0  0  0  0  0  0  0  0  0  0  0
    4.6065   -0.8796    3.2401 C   0  0  0  0  0  0  0  0  0  0  0  0
    4.0210   -1.9918    2.3647 C   0  0  0  0  0  0  0  0  0  0  0  0
    2.7054   -2.3442    2.7468 O   0  0  0  0  0  0  0  0  0  0  0  0
    1.6675   -1.5479    2.4013 C   0  0  0  0  0  0  0  0  0  0  0  0
    0.4079   -1.9601    2.8612 C   0  0  0  0  0  0  0  0  0  0  0  0
   -0.7100   -1.2318    2.5536 C   0  0  0  0  0  0  0  0  0  0  0  0
   -0.6414   -0.0632    1.7810 C   0  0  0  0  0  0  0  0  0  0  0  0
   -1.8499    0.6775    1.5013 C   0  0  0  0  0  0  0  0  0  0  0  0
   -2.9915    0.2413    1.8441 N   0  0  0  0  0  0  0  0  0  0  0  0
   -4.1574    0.9560    1.6640 C   0  0  0  0  0  0  0  0  0  0  0  0
   -4.2301    2.3316    1.9471 C   0  0  0  0  0  0  0  0  0  0  0  0
   -5.4133    3.0350    1.8362 C   0  0  0  0  0  0  0  0  0  0  0  0
   -6.5265    2.3361    1.4128 C   0  0  0  0  0  0  0  0  0  0  0  0
   -7.8362    2.7020    1.1817 N   0  0  0  0  0  0  0  0  0  0  0  0
   -8.4840    1.5632    0.7862 C   0  0  0  0  0  0  0  0  0  0  0  0
   -9.7814    1.6467    0.5177 O   0  0  0  0  0  0  0  0  0  0  0  0
  -10.4048    0.4607    0.0205 C   0  0  0  0  0  0  0  0  0  0  0  0
  -10.6595    0.5559   -1.4830 C   0  0  0  0  0  0  0  0  0  0  0  0
   -9.3868    0.6037   -2.3304 C   0  0  0  0  0  0  0  0  0  0  0  0
   -8.4880   -0.6307   -2.2243 C   0  0  0  0  0  0  0  0  0  0  0  0
   -9.1670   -1.9579   -2.5633 C   0  0  0  0  0  0  0  0  0  0  0  0
   -9.7004   -2.0147   -3.9906 C   0  0  0  0  0  0  0  0  0  0  0  0
   -7.7224    0.5124    0.7401 N   0  0  0  0  0  0  0  0  0  0  0  0
   -6.4743    0.9514    1.1276 C   0  0  0  0  0  0  0  0  0  0  0  0
   -5.2920    0.2494    1.2676 C   0  0  0  0  0  0  0  0  0  0  0  0
    0.6206    0.3395    1.3165 C   0  0  0  0  0  0  0  0  0  0  0  0
    0.8240    1.4409    0.5492 O   0  0  0  0  0  0  0  0  0  0  0  0
    1.7574   -0.3977    1.6303 C   0  0  0  0  0  0  0  0  0  0  0  0
    9.6767    3.4168   -3.6353 H   0  0  0  0  0  0  0  0  0  0  0  0
    7.9491    3.5478   -3.3024 H   0  0  0  0  0  0  0  0  0  0  0  0
    9.0143    2.7314   -2.1559 H   0  0  0  0  0  0  0  0  0  0  0  0
    8.5068    1.7841   -5.0146 H   0  0  0  0  0  0  0  0  0  0  0  0
    9.4376    0.9245   -3.7946 H   0  0  0  0  0  0  0  0  0  0  0  0
    7.1708   -0.0218   -4.1198 H   0  0  0  0  0  0  0  0  0  0  0  0
    6.4501    1.5320   -3.7020 H   0  0  0  0  0  0  0  0  0  0  0  0
    6.2835    0.0233   -1.8262 H   0  0  0  0  0  0  0  0  0  0  0  0
    7.3574    1.3536   -1.4070 H   0  0  0  0  0  0  0  0  0  0  0  0
    9.3281   -0.0851   -1.7267 H   0  0  0  0  0  0  0  0  0  0  0  0
    8.3130   -1.3707   -2.3814 H   0  0  0  0  0  0  0  0  0  0  0  0
    8.8546   -1.9599   -0.1222 H   0  0  0  0  0  0  0  0  0  0  0  0
    7.1468   -1.5209   -0.1665 H   0  0  0  0  0  0  0  0  0  0  0  0
    9.4024    0.3452    0.6875 H   0  0  0  0  0  0  0  0  0  0  0  0
    7.6831    0.7049    0.7824 H   0  0  0  0  0  0  0  0  0  0  0  0
    9.1587   -1.4733    2.3200 H   0  0  0  0  0  0  0  0  0  0  0  0
    8.6427    0.0816    2.9708 H   0  0  0  0  0  0  0  0  0  0  0  0
    7.1538   -1.7435    3.6579 H   0  0  0  0  0  0  0  0  0  0  0  0
    6.8085   -2.1409    1.9787 H   0  0  0  0  0  0  0  0  0  0  0  0
    6.2008    0.5509    3.2748 H   0  0  0  0  0  0  0  0  0  0  0  0
    5.7144    0.0484    1.6558 H   0  0  0  0  0  0  0  0  0  0  0  0
    4.7783   -1.2729    4.2438 H   0  0  0  0  0  0  0  0  0  0  0  0
    3.8686   -0.0786    3.3232 H   0  0  0  0  0  0  0  0  0  0  0  0
    4.0487   -1.7040    1.3065 H   0  0  0  0  0  0  0  0  0  0  0  0
    4.5934   -2.9145    2.4869 H   0  0  0  0  0  0  0  0  0  0  0  0
    0.3496   -2.8571    3.4559 H   0  0  0  0  0  0  0  0  0  0  0  0
   -1.6846   -1.5355    2.9004 H   0  0  0  0  0  0  0  0  0  0  0  0
   -1.7472    1.6359    0.9606 H   0  0  0  0  0  0  0  0  0  0  0  0
   -3.3418    2.8370    2.2984 H   0  0  0  0  0  0  0  0  0  0  0  0
   -5.4617    4.0877    2.0724 H   0  0  0  0  0  0  0  0  0  0  0  0
   -8.2535    3.6088    1.2956 H   0  0  0  0  0  0  0  0  0  0  0  0
   -9.7773   -0.3981    0.2639 H   0  0  0  0  0  0  0  0  0  0  0  0
  -11.3580    0.3846    0.5529 H   0  0  0  0  0  0  0  0  0  0  0  0
  -11.2395    1.4623   -1.6733 H   0  0  0  0  0  0  0  0  0  0  0  0
  -11.2719   -0.2984   -1.7724 H   0  0  0  0  0  0  0  0  0  0  0  0
   -9.6794    0.7544   -3.3716 H   0  0  0  0  0  0  0  0  0  0  0  0
   -8.7987    1.4752   -2.0319 H   0  0  0  0  0  0  0  0  0  0  0  0
   -8.0787   -0.6859   -1.2140 H   0  0  0  0  0  0  0  0  0  0  0  0
   -7.6461   -0.4867   -2.9065 H   0  0  0  0  0  0  0  0  0  0  0  0
   -8.4312   -2.7544   -2.4307 H   0  0  0  0  0  0  0  0  0  0  0  0
   -9.9806   -2.1515   -1.8618 H   0  0  0  0  0  0  0  0  0  0  0  0
  -10.5089   -1.3027   -4.1363 H   0  0  0  0  0  0  0  0  0  0  0  0
  -10.0822   -3.0089   -4.2131 H   0  0  0  0  0  0  0  0  0  0  0  0
   -8.9085   -1.7859   -4.7008 H   0  0  0  0  0  0  0  0  0  0  0  0
   -5.2313   -0.8049    1.0567 H   0  0  0  0  0  0  0  0  0  0  0  0
   -0.0159    1.8775    0.3599 H   0  0  0  0  0  0  0  0  0  0  0  0
    2.6927   -0.0300    1.2418 H   0  0  0  0  0  0  0  0  0  0  0  0
  1  2  1  0  0  0  0
  2  3  1  0  0  0  0
  3  4  1  0  0  0  0
  4  5  1  0  0  0  0
  5  6  1  0  0  0  0
  6  7  1  0  0  0  0
  7  8  1  0  0  0  0
  8  9  1  0  0  0  0
  9 10  1  0  0  0  0
 10 11  1  0  0  0  0
 11 12  1  0  0  0  0
 12 13  1  0  0  0  0
 13 14  1  0  0  0  0
 14 15  2  0  0  0  0
 15 16  1  0  0  0  0
 16 17  2  0  0  0  0
 17 18  1  0  0  0  0
 18 19  2  0  0  0  0
 19 20  1  0  0  0  0
 20 21  2  0  0  0  0
 21 22  1  0  0  0  0
 22 23  2  0  0  0  0
 23 24  1  0  0  0  0
 24 25  1  0  0  0  0
 25 26  1  0  0  0  0
 26 27  1  0  0  0  0
 27 28  1  0  0  0  0
 28 29  1  0  0  0  0
 29 30  1  0  0  0  0
 30 31  1  0  0  0  0
 31 32  1  0  0  0  0
 25 33  2  0  0  0  0
 33 34  1  0  0  0  0
 34 35  2  0  0  0  0
 17 36  1  0  0  0  0
 36 37  1  0  0  0  0
 36 38  2  0  0  0  0
 38 14  1  0  0  0  0
 35 20  1  0  0  0  0
 34 23  1  0  0  0  0
  1 39  1  0  0  0  0
  1 40  1  0  0  0  0
  1 41  1  0  0  0  0
  2 42  1  0  0  0  0
  2 43  1  0  0  0  0
  3 44  1  0  0  0  0
  3 45  1  0  0  0  0
  4 46  1  0  0  0  0
  4 47  1  0  0  0  0
  5 48  1  0  0  0  0
  5 49  1  0  0  0  0
  6 50  1  0  0  0  0
  6 51  1  0  0  0  0
  7 52  1  0  0  0  0
  7 53  1  0  0  0  0
  8 54  1  0  0  0  0
  8 55  1  0  0  0  0
  9 56  1  0  0  0  0
  9 57  1  0  0  0  0
 10 58  1  0  0  0  0
 10 59  1  0  0  0  0
 11 60  1  0  0  0  0
 11 61  1  0  0  0  0
 12 62  1  0  0  0  0
 12 63  1  0  0  0  0
 15 64  1  0  0  0  0
 16 65  1  0  0  0  0
 18 66  1  0  0  0  0
 21 67  1  0  0  0  0
 22 68  1  0  0  0  0
 24 69  1  0  0  0  0
 27 70  1  0  0  0  0
 27 71  1  0  0  0  0
 28 72  1  0  0  0  0
 28 73  1  0  0  0  0
 29 74  1  0  0  0  0
 29 75  1  0  0  0  0
 30 76  1  0  0  0  0
 30 77  1  0  0  0  0
 31 78  1  0  0  0  0
 31 79  1  0  0  0  0
 32 80  1  0  0  0  0
 32 81  1  0  0  0  0
 32 82  1  0  0  0  0
 35 83  1  0  0  0  0
 37 84  1  0  0  0  0
 38 85  1  0  0  0  0
M  END
