
  xtb     03212211203D
 energy: -106.201370695851 gnorm: 0.000050981755 xtb: 6.4.1 (afa7bdf)
 70 78  0     0  0            999 V2000
   -2.7043   -3.8058    3.0169 C   0  0  0  0  0  0  0  0  0  0  0  0
   -1.4157   -3.2416    3.0944 C   0  0  0  0  0  0  0  0  0  0  0  0
   -1.0461   -2.2431    2.2456 C   0  0  0  0  0  0  0  0  0  0  0  0
   -1.9276   -1.7456    1.2551 C   0  0  0  0  0  0  0  0  0  0  0  0
   -1.5459   -0.7379    0.3410 C   0  0  0  0  0  0  0  0  0  0  0  0
   -0.0015    0.1333    0.8201 P   0  0  0  0  0  0  0  0  0  0  0  0
    1.4453   -0.9000    0.3589 C   0  0  0  0  0  0  0  0  0  0  0  0
    1.3989   -2.1096   -0.3653 C   0  0  0  0  0  0  0  0  0  0  0  0
    0.3159   -2.4769   -1.2004 C   0  0  0  0  0  0  0  0  0  0  0  0
    0.2909   -3.6661   -1.8637 C   0  0  0  0  0  0  0  0  0  0  0  0
    1.3600   -4.5749   -1.7451 C   0  0  0  0  0  0  0  0  0  0  0  0
    2.4518   -4.2370   -1.0079 C   0  0  0  0  0  0  0  0  0  0  0  0
    2.5236   -2.9958   -0.3247 C   0  0  0  0  0  0  0  0  0  0  0  0
    3.6762   -2.6230    0.3573 C   0  0  0  0  0  0  0  0  0  0  0  0
    3.7721   -1.3910    0.9953 C   0  0  0  0  0  0  0  0  0  0  0  0
    4.9696   -0.9833    1.6361 C   0  0  0  0  0  0  0  0  0  0  0  0
    5.0512    0.2144    2.2758 C   0  0  0  0  0  0  0  0  0  0  0  0
    3.9270    1.0621    2.3240 C   0  0  0  0  0  0  0  0  0  0  0  0
    2.7604    0.6983    1.7236 C   0  0  0  0  0  0  0  0  0  0  0  0
    2.6348   -0.5270    1.0244 C   0  0  0  0  0  0  0  0  0  0  0  0
    0.0930    1.7290   -0.0846 C   0  0  0  0  0  0  0  0  0  0  0  0
   -0.7104    2.7437    0.4823 C   0  0  0  0  0  0  0  0  0  0  0  0
   -1.7199    2.4667    1.4362 C   0  0  0  0  0  0  0  0  0  0  0  0
   -2.5133    3.4504    1.9429 C   0  0  0  0  0  0  0  0  0  0  0  0
   -2.3415    4.7884    1.5365 C   0  0  0  0  0  0  0  0  0  0  0  0
   -1.3684    5.1048    0.6401 C   0  0  0  0  0  0  0  0  0  0  0  0
   -0.5286    4.1047    0.0877 C   0  0  0  0  0  0  0  0  0  0  0  0
    0.4822    4.4241   -0.8126 C   0  0  0  0  0  0  0  0  0  0  0  0
    1.2620    3.4365   -1.4035 C   0  0  0  0  0  0  0  0  0  0  0  0
    2.2616    3.7692   -2.3535 C   0  0  0  0  0  0  0  0  0  0  0  0
    2.9726    2.8049   -2.9972 C   0  0  0  0  0  0  0  0  0  0  0  0
    2.6923    1.4479   -2.7463 C   0  0  0  0  0  0  0  0  0  0  0  0
    1.7577    1.0932   -1.8214 C   0  0  0  0  0  0  0  0  0  0  0  0
    1.0429    2.0600   -1.0734 C   0  0  0  0  0  0  0  0  0  0  0  0
   -2.4484   -0.3243   -0.6609 C   0  0  0  0  0  0  0  0  0  0  0  0
   -2.0906    0.5435   -1.7210 C   0  0  0  0  0  0  0  0  0  0  0  0
   -2.9951    0.9460   -2.6562 C   0  0  0  0  0  0  0  0  0  0  0  0
   -4.3290    0.4979   -2.6017 C   0  0  0  0  0  0  0  0  0  0  0  0
   -4.7025   -0.3895   -1.6411 C   0  0  0  0  0  0  0  0  0  0  0  0
   -3.7806   -0.8509   -0.6665 C   0  0  0  0  0  0  0  0  0  0  0  0
   -4.1474   -1.8198    0.2605 C   0  0  0  0  0  0  0  0  0  0  0  0
   -3.2384   -2.3101    1.1919 C   0  0  0  0  0  0  0  0  0  0  0  0
   -3.5921   -3.3442    2.0953 C   0  0  0  0  0  0  0  0  0  0  0  0
   -2.9788   -4.5973    3.6988 H   0  0  0  0  0  0  0  0  0  0  0  0
   -0.7217   -3.6075    3.8367 H   0  0  0  0  0  0  0  0  0  0  0  0
   -0.0528   -1.8201    2.3200 H   0  0  0  0  0  0  0  0  0  0  0  0
   -0.4940   -1.7800   -1.3370 H   0  0  0  0  0  0  0  0  0  0  0  0
   -0.5488   -3.9131   -2.4966 H   0  0  0  0  0  0  0  0  0  0  0  0
    1.3144   -5.5216   -2.2630 H   0  0  0  0  0  0  0  0  0  0  0  0
    3.3002   -4.9030   -0.9375 H   0  0  0  0  0  0  0  0  0  0  0  0
    4.5203   -3.2984    0.3783 H   0  0  0  0  0  0  0  0  0  0  0  0
    5.8193   -1.6503    1.5976 H   0  0  0  0  0  0  0  0  0  0  0  0
    5.9682    0.5212    2.7571 H   0  0  0  0  0  0  0  0  0  0  0  0
    3.9978    2.0056    2.8450 H   0  0  0  0  0  0  0  0  0  0  0  0
    1.9063    1.3609    1.7735 H   0  0  0  0  0  0  0  0  0  0  0  0
   -1.8645    1.4446    1.7611 H   0  0  0  0  0  0  0  0  0  0  0  0
   -3.2809    3.2109    2.6639 H   0  0  0  0  0  0  0  0  0  0  0  0
   -2.9813    5.5546    1.9492 H   0  0  0  0  0  0  0  0  0  0  0  0
   -1.2169    6.1274    0.3243 H   0  0  0  0  0  0  0  0  0  0  0  0
    0.6550    5.4598   -1.0707 H   0  0  0  0  0  0  0  0  0  0  0  0
    2.4321    4.8158   -2.5632 H   0  0  0  0  0  0  0  0  0  0  0  0
    3.7315    3.0673   -3.7195 H   0  0  0  0  0  0  0  0  0  0  0  0
    3.2166    0.6852   -3.3032 H   0  0  0  0  0  0  0  0  0  0  0  0
    1.5293    0.0506   -1.6754 H   0  0  0  0  0  0  0  0  0  0  0  0
   -1.0661    0.8658   -1.8048 H   0  0  0  0  0  0  0  0  0  0  0  0
   -2.6881    1.6049   -3.4552 H   0  0  0  0  0  0  0  0  0  0  0  0
   -5.0373    0.8429   -3.3405 H   0  0  0  0  0  0  0  0  0  0  0  0
   -5.7109   -0.7771   -1.6072 H   0  0  0  0  0  0  0  0  0  0  0  0
   -5.1554   -2.2110    0.2461 H   0  0  0  0  0  0  0  0  0  0  0  0
   -4.5875   -3.7600    2.0277 H   0  0  0  0  0  0  0  0  0  0  0  0
  1  2  2  0  0  0  0
  2  3  1  0  0  0  0
  3  4  2  0  0  0  0
  4  5  1  0  0  0  0
  5  6  1  0  0  0  0
  6  7  1  0  0  0  0
  7  8  1  0  0  0  0
  8  9  2  0  0  0  0
  9 10  1  0  0  0  0
 10 11  2  0  0  0  0
 11 12  1  0  0  0  0
 12 13  2  0  0  0  0
 13 14  1  0  0  0  0
 14 15  2  0  0  0  0
 15 16  1  0  0  0  0
 16 17  2  0  0  0  0
 17 18  1  0  0  0  0
 18 19  2  0  0  0  0
 19 20  1  0  0  0  0
  6 21  1  0  0  0  0
 21 22  1  0  0  0  0
 22 23  2  0  0  0  0
 23 24  1  0  0  0  0
 24 25  2  0  0  0  0
 25 26  1  0  0  0  0
 26 27  2  0  0  0  0
 27 28  1  0  0  0  0
 28 29  2  0  0  0  0
 29 30  1  0  0  0  0
 30 31  2  0  0  0  0
 31 32  1  0  0  0  0
 32 33  2  0  0  0  0
 33 34  1  0  0  0  0
  5 35  2  0  0  0  0
 35 36  1  0  0  0  0
 36 37  2  0  0  0  0
 37 38  1  0  0  0  0
 38 39  2  0  0  0  0
 39 40  1  0  0  0  0
 40 41  2  0  0  0  0
 41 42  1  0  0  0  0
 42 43  2  0  0  0  0
 43  1  1  0  0  0  0
 42  4  1  0  0  0  0
 20  7  2  0  0  0  0
 34 21  2  0  0  0  0
 40 35  1  0  0  0  0
 13  8  1  0  0  0  0
 20 15  1  0  0  0  0
 27 22  1  0  0  0  0
 34 29  1  0  0  0  0
  1 44  1  0  0  0  0
  2 45  1  0  0  0  0
  3 46  1  0  0  0  0
  9 47  1  0  0  0  0
 10 48  1  0  0  0  0
 11 49  1  0  0  0  0
 12 50  1  0  0  0  0
 14 51  1  0  0  0  0
 16 52  1  0  0  0  0
 17 53  1  0  0  0  0
 18 54  1  0  0  0  0
 19 55  1  0  0  0  0
 23 56  1  0  0  0  0
 24 57  1  0  0  0  0
 25 58  1  0  0  0  0
 26 59  1  0  0  0  0
 28 60  1  0  0  0  0
 30 61  1  0  0  0  0
 31 62  1  0  0  0  0
 32 63  1  0  0  0  0
 33 64  1  0  0  0  0
 36 65  1  0  0  0  0
 37 66  1  0  0  0  0
 38 67  1  0  0  0  0
 39 68  1  0  0  0  0
 41 69  1  0  0  0  0
 43 70  1  0  0  0  0
M  END
