
  xtb     03212212173D
 energy: -51.097485650665 gnorm: 0.000161230220 xtb: 6.4.1 (afa7bdf)
 31 33  0     0  0            999 V2000
   -0.8116   -0.9347    1.6979 C   0  0  0  0  0  0  0  0  0  0  0  0
   -0.3705   -0.1758    0.4832 C   0  0  0  0  0  0  0  0  0  0  0  0
   -1.1937    0.4227   -0.3990 C   0  0  0  0  0  0  0  0  0  0  0  0
   -2.6421    0.5169   -0.3498 C   0  0  0  0  0  0  0  0  0  0  0  0
   -3.3554    0.4894   -1.5524 C   0  0  0  0  0  0  0  0  0  0  0  0
   -4.7327    0.5626   -1.5704 C   0  0  0  0  0  0  0  0  0  0  0  0
   -5.4221    0.6915   -0.3736 C   0  0  0  0  0  0  0  0  0  0  0  0
   -7.1477    0.7867   -0.3855 Cl  0  0  0  0  0  0  0  0  0  0  0  0
   -4.7380    0.7599    0.8296 C   0  0  0  0  0  0  0  0  0  0  0  0
   -3.3593    0.6709    0.8383 C   0  0  0  0  0  0  0  0  0  0  0  0
    1.0561   -0.1571    0.2675 C   0  0  0  0  0  0  0  0  0  0  0  0
    1.9066   -0.7441    1.0296 N   0  0  0  0  0  0  0  0  0  0  0  0
    3.1905   -0.5774    0.6223 C   0  0  0  0  0  0  0  0  0  0  0  0
    4.3217   -1.0974    1.2481 C   0  0  0  0  0  0  0  0  0  0  0  0
    5.5606   -0.8361    0.7052 C   0  0  0  0  0  0  0  0  0  0  0  0
    5.6939   -0.0664   -0.4498 C   0  0  0  0  0  0  0  0  0  0  0  0
    4.5880    0.4599   -1.0881 C   0  0  0  0  0  0  0  0  0  0  0  0
    3.3397    0.2025   -0.5487 C   0  0  0  0  0  0  0  0  0  0  0  0
    1.7809    0.7157   -1.1104 S   0  0  0  0  0  0  0  0  0  0  0  0
   -1.8216   -1.3152    1.5715 H   0  0  0  0  0  0  0  0  0  0  0  0
   -0.1253   -1.7597    1.8703 H   0  0  0  0  0  0  0  0  0  0  0  0
   -0.7778   -0.2947    2.5787 H   0  0  0  0  0  0  0  0  0  0  0  0
   -0.7486    0.8600   -1.2857 H   0  0  0  0  0  0  0  0  0  0  0  0
   -2.8165    0.3911   -2.4833 H   0  0  0  0  0  0  0  0  0  0  0  0
   -5.2732    0.5259   -2.5033 H   0  0  0  0  0  0  0  0  0  0  0  0
   -5.2831    0.8851    1.7522 H   0  0  0  0  0  0  0  0  0  0  0  0
   -2.8347    0.7643    1.7749 H   0  0  0  0  0  0  0  0  0  0  0  0
    4.2048   -1.6909    2.1406 H   0  0  0  0  0  0  0  0  0  0  0  0
    6.4457   -1.2324    1.1799 H   0  0  0  0  0  0  0  0  0  0  0  0
    6.6776    0.1216   -0.8528 H   0  0  0  0  0  0  0  0  0  0  0  0
    4.6878    1.0554   -1.9822 H   0  0  0  0  0  0  0  0  0  0  0  0
  1  2  1  0  0  0  0
  2  3  2  0  0  0  0
  3  4  1  0  0  0  0
  4  5  2  0  0  0  0
  5  6  1  0  0  0  0
  6  7  2  0  0  0  0
  7  8  1  0  0  0  0
  7  9  1  0  0  0  0
  9 10  2  0  0  0  0
  2 11  1  0  0  0  0
 11 12  2  0  0  0  0
 12 13  1  0  0  0  0
 13 14  2  0  0  0  0
 14 15  1  0  0  0  0
 15 16  2  0  0  0  0
 16 17  1  0  0  0  0
 17 18  2  0  0  0  0
 18 19  1  0  0  0  0
 10  4  1  0  0  0  0
 19 11  1  0  0  0  0
 18 13  1  0  0  0  0
  1 20  1  0  0  0  0
  1 21  1  0  0  0  0
  1 22  1  0  0  0  0
  3 23  1  0  0  0  0
  5 24  1  0  0  0  0
  6 25  1  0  0  0  0
  9 26  1  0  0  0  0
 10 27  1  0  0  0  0
 14 28  1  0  0  0  0
 15 29  1  0  0  0  0
 16 30  1  0  0  0  0
 17 31  1  0  0  0  0
M  END
