
  xtb     03212212123D
 energy: -90.533758091806 gnorm: 0.000114029728 xtb: 6.4.1 (afa7bdf)
 58 62  0     0  0            999 V2000
    4.8043   -0.9736   -0.2523 C   0  0  0  0  0  0  0  0  0  0  0  0
    5.9140   -0.8174    0.4881 C   0  0  0  0  0  0  0  0  0  0  0  0
    7.1544   -1.5413    0.3159 C   0  0  0  0  0  0  0  0  0  0  0  0
    7.3962   -2.5042   -0.6739 C   0  0  0  0  0  0  0  0  0  0  0  0
    8.6457   -3.0946   -0.6827 C   0  0  0  0  0  0  0  0  0  0  0  0
    9.5902   -2.7810    0.1946 N   0  0  0  0  0  0  0  0  0  0  0  0
    9.2678   -1.8610    1.0877 C   0  0  0  0  0  0  0  0  0  0  0  0
    8.1186   -1.2328    1.1945 N   0  0  0  0  0  0  0  0  0  0  0  0
    3.5572   -0.2618   -0.0912 C   0  0  0  0  0  0  0  0  0  0  0  0
    3.3430    0.7057    0.8977 C   0  0  0  0  0  0  0  0  0  0  0  0
    2.1357    1.3549    1.0100 C   0  0  0  0  0  0  0  0  0  0  0  0
    1.0846    1.0652    0.1349 C   0  0  0  0  0  0  0  0  0  0  0  0
   -0.1351    1.7303    0.2467 N   0  0  0  0  0  0  0  0  0  0  0  0
   -0.1582    3.0775    0.6445 C   0  0  0  0  0  0  0  0  0  0  0  0
   -1.1418    3.5366    1.5186 C   0  0  0  0  0  0  0  0  0  0  0  0
   -1.1630    4.8634    1.9032 C   0  0  0  0  0  0  0  0  0  0  0  0
   -0.2045    5.7454    1.4317 C   0  0  0  0  0  0  0  0  0  0  0  0
    0.7774    5.2915    0.5664 C   0  0  0  0  0  0  0  0  0  0  0  0
    0.8021    3.9685    0.1692 C   0  0  0  0  0  0  0  0  0  0  0  0
   -1.3322    1.0727   -0.0297 C   0  0  0  0  0  0  0  0  0  0  0  0
   -2.4012    1.7566   -0.6142 C   0  0  0  0  0  0  0  0  0  0  0  0
   -3.5842    1.1046   -0.8751 C   0  0  0  0  0  0  0  0  0  0  0  0
   -3.7573   -0.2514   -0.5709 C   0  0  0  0  0  0  0  0  0  0  0  0
   -5.0240   -0.8792   -0.8684 C   0  0  0  0  0  0  0  0  0  0  0  0
   -5.3447   -2.1678   -0.6665 C   0  0  0  0  0  0  0  0  0  0  0  0
   -6.6216   -2.7772   -0.9674 C   0  0  0  0  0  0  0  0  0  0  0  0
   -7.7201   -2.1121   -1.5299 C   0  0  0  0  0  0  0  0  0  0  0  0
   -8.8627   -2.8590   -1.7451 C   0  0  0  0  0  0  0  0  0  0  0  0
   -8.9412   -4.1482   -1.4419 N   0  0  0  0  0  0  0  0  0  0  0  0
   -7.8534   -4.6863   -0.9172 C   0  0  0  0  0  0  0  0  0  0  0  0
   -6.7144   -4.0802   -0.6672 N   0  0  0  0  0  0  0  0  0  0  0  0
   -2.6798   -0.9258    0.0158 C   0  0  0  0  0  0  0  0  0  0  0  0
   -1.4947   -0.2806    0.2821 C   0  0  0  0  0  0  0  0  0  0  0  0
    1.2872    0.1030   -0.8575 C   0  0  0  0  0  0  0  0  0  0  0  0
    2.4973   -0.5433   -0.9621 C   0  0  0  0  0  0  0  0  0  0  0  0
    4.8041   -1.6962   -1.0590 H   0  0  0  0  0  0  0  0  0  0  0  0
    5.9484   -0.1084    1.3021 H   0  0  0  0  0  0  0  0  0  0  0  0
    6.6489   -2.7776   -1.4001 H   0  0  0  0  0  0  0  0  0  0  0  0
    8.9124   -3.8475   -1.4141 H   0  0  0  0  0  0  0  0  0  0  0  0
   10.0327   -1.5971    1.8081 H   0  0  0  0  0  0  0  0  0  0  0  0
    4.1300    0.9457    1.5947 H   0  0  0  0  0  0  0  0  0  0  0  0
    1.9888    2.0914    1.7864 H   0  0  0  0  0  0  0  0  0  0  0  0
   -1.8830    2.8467    1.8946 H   0  0  0  0  0  0  0  0  0  0  0  0
   -1.9284    5.2082    2.5824 H   0  0  0  0  0  0  0  0  0  0  0  0
   -0.2225    6.7804    1.7372 H   0  0  0  0  0  0  0  0  0  0  0  0
    1.5254    5.9738    0.1910 H   0  0  0  0  0  0  0  0  0  0  0  0
    1.5622    3.6170   -0.5131 H   0  0  0  0  0  0  0  0  0  0  0  0
   -2.2895    2.8008   -0.8666 H   0  0  0  0  0  0  0  0  0  0  0  0
   -4.3960    1.6507   -1.3343 H   0  0  0  0  0  0  0  0  0  0  0  0
   -5.7619   -0.2118   -1.2961 H   0  0  0  0  0  0  0  0  0  0  0  0
   -4.6336   -2.8623   -0.2439 H   0  0  0  0  0  0  0  0  0  0  0  0
   -7.6852   -1.0665   -1.7868 H   0  0  0  0  0  0  0  0  0  0  0  0
   -9.7547   -2.4203   -2.1754 H   0  0  0  0  0  0  0  0  0  0  0  0
   -7.9071   -5.7388   -0.6665 H   0  0  0  0  0  0  0  0  0  0  0  0
   -2.7765   -1.9671    0.2791 H   0  0  0  0  0  0  0  0  0  0  0  0
   -0.6814   -0.8165    0.7490 H   0  0  0  0  0  0  0  0  0  0  0  0
    0.4897   -0.1229   -1.5500 H   0  0  0  0  0  0  0  0  0  0  0  0
    2.6354   -1.2787   -1.7421 H   0  0  0  0  0  0  0  0  0  0  0  0
  1  2  2  0  0  0  0
  2  3  1  0  0  0  0
  3  4  2  0  0  0  0
  4  5  1  0  0  0  0
  5  6  2  0  0  0  0
  6  7  1  0  0  0  0
  7  8  2  0  0  0  0
  1  9  1  0  0  0  0
  9 10  2  0  0  0  0
 10 11  1  0  0  0  0
 11 12  2  0  0  0  0
 12 13  1  0  0  0  0
 13 14  1  0  0  0  0
 14 15  2  0  0  0  0
 15 16  1  0  0  0  0
 16 17  2  0  0  0  0
 17 18  1  0  0  0  0
 18 19  2  0  0  0  0
 13 20  1  0  0  0  0
 20 21  2  0  0  0  0
 21 22  1  0  0  0  0
 22 23  2  0  0  0  0
 23 24  1  0  0  0  0
 24 25  2  0  0  0  0
 25 26  1  0  0  0  0
 26 27  2  0  0  0  0
 27 28  1  0  0  0  0
 28 29  2  0  0  0  0
 29 30  1  0  0  0  0
 30 31  2  0  0  0  0
 23 32  1  0  0  0  0
 32 33  2  0  0  0  0
 12 34  1  0  0  0  0
 34 35  2  0  0  0  0
  8  3  1  0  0  0  0
 35  9  1  0  0  0  0
 19 14  1  0  0  0  0
 33 20  1  0  0  0  0
 31 26  1  0  0  0  0
  1 36  1  0  0  0  0
  2 37  1  0  0  0  0
  4 38  1  0  0  0  0
  5 39  1  0  0  0  0
  7 40  1  0  0  0  0
 10 41  1  0  0  0  0
 11 42  1  0  0  0  0
 15 43  1  0  0  0  0
 16 44  1  0  0  0  0
 17 45  1  0  0  0  0
 18 46  1  0  0  0  0
 19 47  1  0  0  0  0
 21 48  1  0  0  0  0
 22 49  1  0  0  0  0
 24 50  1  0  0  0  0
 25 51  1  0  0  0  0
 27 52  1  0  0  0  0
 28 53  1  0  0  0  0
 30 54  1  0  0  0  0
 32 55  1  0  0  0  0
 33 56  1  0  0  0  0
 34 57  1  0  0  0  0
 35 58  1  0  0  0  0
M  END
