
  xtb     03212211023D
 energy: -75.208172630877 gnorm: 0.000091921773 xtb: 6.4.1 (afa7bdf)
 51 55  0     0  0            999 V2000
    6.5301    2.0734    1.7875 C   0  0  0  0  0  0  0  0  0  0  0  0
    6.0658    0.9628    1.0624 O   0  0  0  0  0  0  0  0  0  0  0  0
    4.7324    0.8747    0.7940 C   0  0  0  0  0  0  0  0  0  0  0  0
    3.7916    1.8003    1.1736 C   0  0  0  0  0  0  0  0  0  0  0  0
    2.4394    1.5925    0.8813 C   0  0  0  0  0  0  0  0  0  0  0  0
    1.9988    0.4785    0.2069 C   0  0  0  0  0  0  0  0  0  0  0  0
    0.5606    0.2916    0.0276 C   0  0  0  0  0  0  0  0  0  0  0  0
   -0.3140    1.1567   -0.5220 C   0  0  0  0  0  0  0  0  0  0  0  0
   -1.6621    0.6412   -0.4222 C   0  0  0  0  0  0  0  0  0  0  0  0
   -2.8105    1.3253   -1.0132 C   0  0  0  0  0  0  0  0  0  0  0  0
   -3.7615    0.6209   -1.7500 C   0  0  0  0  0  0  0  0  0  0  0  0
   -4.8334    1.2788   -2.3211 C   0  0  0  0  0  0  0  0  0  0  0  0
   -4.9734    2.6491   -2.1686 C   0  0  0  0  0  0  0  0  0  0  0  0
   -4.0300    3.3591   -1.4456 C   0  0  0  0  0  0  0  0  0  0  0  0
   -2.9533    2.7043   -0.8767 C   0  0  0  0  0  0  0  0  0  0  0  0
   -1.6309   -0.5509    0.2368 C   0  0  0  0  0  0  0  0  0  0  0  0
   -2.7400   -1.3900    0.6548 C   0  0  0  0  0  0  0  0  0  0  0  0
   -3.9598   -0.8257    1.0380 C   0  0  0  0  0  0  0  0  0  0  0  0
   -5.0094   -1.6230    1.4480 C   0  0  0  0  0  0  0  0  0  0  0  0
   -4.8671   -3.0009    1.4909 C   0  0  0  0  0  0  0  0  0  0  0  0
   -3.6600   -3.5734    1.1274 C   0  0  0  0  0  0  0  0  0  0  0  0
   -2.6063   -2.7787    0.7185 C   0  0  0  0  0  0  0  0  0  0  0  0
   -0.2049   -0.8776    0.5762 C   0  0  0  0  0  0  0  0  0  0  0  0
    2.9593   -0.4608   -0.2634 C   0  0  0  0  0  0  0  0  0  0  0  0
    2.6111   -1.5538   -1.0839 C   0  0  0  0  0  0  0  0  0  0  0  0
    3.5525   -2.4474   -1.5145 C   0  0  0  0  0  0  0  0  0  0  0  0
    4.8961   -2.2902   -1.1509 C   0  0  0  0  0  0  0  0  0  0  0  0
    5.2768   -1.2170   -0.3946 C   0  0  0  0  0  0  0  0  0  0  0  0
    4.3297   -0.2738    0.0510 C   0  0  0  0  0  0  0  0  0  0  0  0
    7.6049    1.9311    1.8898 H   0  0  0  0  0  0  0  0  0  0  0  0
    6.0757    2.1227    2.7826 H   0  0  0  0  0  0  0  0  0  0  0  0
    6.3392    3.0106    1.2544 H   0  0  0  0  0  0  0  0  0  0  0  0
    4.0675    2.6903    1.7167 H   0  0  0  0  0  0  0  0  0  0  0  0
    1.7178    2.3200    1.2238 H   0  0  0  0  0  0  0  0  0  0  0  0
   -0.0665    2.0827   -1.0102 H   0  0  0  0  0  0  0  0  0  0  0  0
   -3.6499   -0.4464   -1.8736 H   0  0  0  0  0  0  0  0  0  0  0  0
   -5.5633    0.7216   -2.8905 H   0  0  0  0  0  0  0  0  0  0  0  0
   -5.8137    3.1614   -2.6139 H   0  0  0  0  0  0  0  0  0  0  0  0
   -4.1338    4.4280   -1.3248 H   0  0  0  0  0  0  0  0  0  0  0  0
   -2.2240    3.2597   -0.3042 H   0  0  0  0  0  0  0  0  0  0  0  0
   -4.0722    0.2479    1.0247 H   0  0  0  0  0  0  0  0  0  0  0  0
   -5.9442   -1.1674    1.7413 H   0  0  0  0  0  0  0  0  0  0  0  0
   -5.6901   -3.6234    1.8095 H   0  0  0  0  0  0  0  0  0  0  0  0
   -3.5392   -4.6468    1.1617 H   0  0  0  0  0  0  0  0  0  0  0  0
   -1.6751   -3.2421    0.4268 H   0  0  0  0  0  0  0  0  0  0  0  0
   -0.0630   -0.9595    1.6568 H   0  0  0  0  0  0  0  0  0  0  0  0
    0.1121   -1.8283    0.1484 H   0  0  0  0  0  0  0  0  0  0  0  0
    1.5853   -1.6610   -1.4020 H   0  0  0  0  0  0  0  0  0  0  0  0
    3.2650   -3.2758   -2.1459 H   0  0  0  0  0  0  0  0  0  0  0  0
    5.6287   -3.0087   -1.4881 H   0  0  0  0  0  0  0  0  0  0  0  0
    6.3114   -1.0628   -0.1312 H   0  0  0  0  0  0  0  0  0  0  0  0
  1  2  1  0  0  0  0
  2  3  1  0  0  0  0
  3  4  2  0  0  0  0
  4  5  1  0  0  0  0
  5  6  2  0  0  0  0
  6  7  1  0  0  0  0
  7  8  2  0  0  0  0
  8  9  1  0  0  0  0
  9 10  1  0  0  0  0
 10 11  2  0  0  0  0
 11 12  1  0  0  0  0
 12 13  2  0  0  0  0
 13 14  1  0  0  0  0
 14 15  2  0  0  0  0
  9 16  2  0  0  0  0
 16 17  1  0  0  0  0
 17 18  2  0  0  0  0
 18 19  1  0  0  0  0
 19 20  2  0  0  0  0
 20 21  1  0  0  0  0
 21 22  2  0  0  0  0
 16 23  1  0  0  0  0
  6 24  1  0  0  0  0
 24 25  2  0  0  0  0
 25 26  1  0  0  0  0
 26 27  2  0  0  0  0
 27 28  1  0  0  0  0
 28 29  2  0  0  0  0
 29  3  1  0  0  0  0
 23  7  1  0  0  0  0
 29 24  1  0  0  0  0
 15 10  1  0  0  0  0
 22 17  1  0  0  0  0
  1 30  1  0  0  0  0
  1 31  1  0  0  0  0
  1 32  1  0  0  0  0
  4 33  1  0  0  0  0
  5 34  1  0  0  0  0
  8 35  1  0  0  0  0
 11 36  1  0  0  0  0
 12 37  1  0  0  0  0
 13 38  1  0  0  0  0
 14 39  1  0  0  0  0
 15 40  1  0  0  0  0
 18 41  1  0  0  0  0
 19 42  1  0  0  0  0
 20 43  1  0  0  0  0
 21 44  1  0  0  0  0
 22 45  1  0  0  0  0
 23 46  1  0  0  0  0
 23 47  1  0  0  0  0
 25 48  1  0  0  0  0
 26 49  1  0  0  0  0
 27 50  1  0  0  0  0
 28 51  1  0  0  0  0
M  END
