
  xtb     03212211373D
 energy: -130.420492737153 gnorm: 0.000068139842 xtb: 6.4.1 (afa7bdf)
102108  0     0  0            999 V2000
    6.5184    1.7350    2.9051 C   0  0  0  0  0  0  0  0  0  0  0  0
    5.5463    1.4534    1.7670 C   0  0  0  0  0  0  0  0  0  0  0  0
    5.9191    0.2807    0.8301 C   0  0  0  0  0  0  0  0  0  0  0  0
    5.8860   -1.0658    1.5672 C   0  0  0  0  0  0  0  0  0  0  0  0
    6.1337   -2.2424    0.6301 C   0  0  0  0  0  0  0  0  0  0  0  0
    4.9461    0.3201   -0.3305 C   0  0  0  0  0  0  0  0  0  0  0  0
    3.5821    0.1437   -0.3150 C   0  0  0  0  0  0  0  0  0  0  0  0
    2.8596    0.2624   -1.5054 C   0  0  0  0  0  0  0  0  0  0  0  0
    1.3998    0.1031   -1.5058 C   0  0  0  0  0  0  0  0  0  0  0  0
    0.6270    0.6497   -0.4828 C   0  0  0  0  0  0  0  0  0  0  0  0
   -0.7474    0.5329   -0.4941 C   0  0  0  0  0  0  0  0  0  0  0  0
   -1.4002   -0.1348   -1.5288 C   0  0  0  0  0  0  0  0  0  0  0  0
   -2.8656   -0.2244   -1.5519 C   0  0  0  0  0  0  0  0  0  0  0  0
   -3.5620   -0.0455   -2.7472 C   0  0  0  0  0  0  0  0  0  0  0  0
   -4.9440   -0.0805   -2.7875 C   0  0  0  0  0  0  0  0  0  0  0  0
   -5.6403   -0.3032   -1.6111 C   0  0  0  0  0  0  0  0  0  0  0  0
   -4.9505   -0.5019   -0.4064 C   0  0  0  0  0  0  0  0  0  0  0  0
   -3.5763   -0.4652   -0.3727 C   0  0  0  0  0  0  0  0  0  0  0  0
   -5.9196   -0.7722    0.7262 C   0  0  0  0  0  0  0  0  0  0  0  0
   -5.7174   -2.2478    1.1440 C   0  0  0  0  0  0  0  0  0  0  0  0
   -6.7308   -2.8016    2.1369 C   0  0  0  0  0  0  0  0  0  0  0  0
   -5.7148    0.1848    1.9084 C   0  0  0  0  0  0  0  0  0  0  0  0
   -5.7890    1.6475    1.4855 C   0  0  0  0  0  0  0  0  0  0  0  0
   -7.2500   -0.5646    0.0367 C   0  0  0  0  0  0  0  0  0  0  0  0
   -8.5159   -0.5448    0.5839 C   0  0  0  0  0  0  0  0  0  0  0  0
   -9.6279   -0.3434   -0.2319 C   0  0  0  0  0  0  0  0  0  0  0  0
  -11.0464   -0.3093    0.3176 C   0  0  0  0  0  0  0  0  0  0  0  0
  -11.1012   -0.5180    1.8337 C   0  0  0  0  0  0  0  0  0  0  0  0
  -11.6731    1.0568    0.0035 C   0  0  0  0  0  0  0  0  0  0  0  0
  -11.8686   -1.4234   -0.3458 C   0  0  0  0  0  0  0  0  0  0  0  0
   -9.4245   -0.1608   -1.5992 C   0  0  0  0  0  0  0  0  0  0  0  0
   -8.1595   -0.1463   -2.1573 C   0  0  0  0  0  0  0  0  0  0  0  0
   -7.0641   -0.3399   -1.3337 C   0  0  0  0  0  0  0  0  0  0  0  0
   -0.6266   -0.6936   -2.5444 C   0  0  0  0  0  0  0  0  0  0  0  0
    0.7482   -0.5768   -2.5331 C   0  0  0  0  0  0  0  0  0  0  0  0
    3.5341    0.5588   -2.6900 C   0  0  0  0  0  0  0  0  0  0  0  0
    4.9041    0.7461   -2.7106 C   0  0  0  0  0  0  0  0  0  0  0  0
    5.6115    0.6289   -1.5256 C   0  0  0  0  0  0  0  0  0  0  0  0
    7.0290    0.7507   -1.2411 C   0  0  0  0  0  0  0  0  0  0  0  0
    8.1065    1.0105   -2.0701 C   0  0  0  0  0  0  0  0  0  0  0  0
    9.3782    1.0216   -1.5275 C   0  0  0  0  0  0  0  0  0  0  0  0
    9.6089    0.7553   -0.1785 C   0  0  0  0  0  0  0  0  0  0  0  0
   11.0377    0.7637    0.3447 C   0  0  0  0  0  0  0  0  0  0  0  0
   11.8612   -0.2838   -0.4179 C   0  0  0  0  0  0  0  0  0  0  0  0
   11.1252    0.4388    1.8387 C   0  0  0  0  0  0  0  0  0  0  0  0
   11.6401    2.1590    0.1253 C   0  0  0  0  0  0  0  0  0  0  0  0
    8.5143    0.4933    0.6437 C   0  0  0  0  0  0  0  0  0  0  0  0
    7.2367    0.5152    0.1243 C   0  0  0  0  0  0  0  0  0  0  0  0
    7.4828    2.0528    2.5188 H   0  0  0  0  0  0  0  0  0  0  0  0
    6.1232    2.5360    3.5270 H   0  0  0  0  0  0  0  0  0  0  0  0
    6.6589    0.8596    3.5340 H   0  0  0  0  0  0  0  0  0  0  0  0
    4.5594    1.2416    2.1857 H   0  0  0  0  0  0  0  0  0  0  0  0
    5.4572    2.3544    1.1540 H   0  0  0  0  0  0  0  0  0  0  0  0
    4.9120   -1.1824    2.0478 H   0  0  0  0  0  0  0  0  0  0  0  0
    6.6480   -1.0670    2.3481 H   0  0  0  0  0  0  0  0  0  0  0  0
    5.3695   -2.2844   -0.1429 H   0  0  0  0  0  0  0  0  0  0  0  0
    7.1035   -2.1467    0.1465 H   0  0  0  0  0  0  0  0  0  0  0  0
    6.1147   -3.1776    1.1856 H   0  0  0  0  0  0  0  0  0  0  0  0
    3.0653   -0.1083    0.5999 H   0  0  0  0  0  0  0  0  0  0  0  0
    1.1100    1.1989    0.3127 H   0  0  0  0  0  0  0  0  0  0  0  0
   -1.3287    0.9914    0.2931 H   0  0  0  0  0  0  0  0  0  0  0  0
   -3.0074    0.1536   -3.6528 H   0  0  0  0  0  0  0  0  0  0  0  0
   -5.4681    0.0730   -3.7194 H   0  0  0  0  0  0  0  0  0  0  0  0
   -3.0389   -0.6290    0.5504 H   0  0  0  0  0  0  0  0  0  0  0  0
   -5.7486   -2.8580    0.2373 H   0  0  0  0  0  0  0  0  0  0  0  0
   -4.7141   -2.3395    1.5671 H   0  0  0  0  0  0  0  0  0  0  0  0
   -7.7283   -2.8080    1.7061 H   0  0  0  0  0  0  0  0  0  0  0  0
   -6.4652   -3.8262    2.3900 H   0  0  0  0  0  0  0  0  0  0  0  0
   -6.7453   -2.2213    3.0559 H   0  0  0  0  0  0  0  0  0  0  0  0
   -6.4796   -0.0061    2.6627 H   0  0  0  0  0  0  0  0  0  0  0  0
   -4.7408   -0.0151    2.3609 H   0  0  0  0  0  0  0  0  0  0  0  0
   -5.6501    2.2973    2.3471 H   0  0  0  0  0  0  0  0  0  0  0  0
   -6.7570    1.8661    1.0397 H   0  0  0  0  0  0  0  0  0  0  0  0
   -5.0179    1.8751    0.7528 H   0  0  0  0  0  0  0  0  0  0  0  0
   -8.6340   -0.6685    1.6472 H   0  0  0  0  0  0  0  0  0  0  0  0
  -10.5572    0.2650    2.3572 H   0  0  0  0  0  0  0  0  0  0  0  0
  -10.6916   -1.4864    2.1124 H   0  0  0  0  0  0  0  0  0  0  0  0
  -12.1370   -0.4850    2.1660 H   0  0  0  0  0  0  0  0  0  0  0  0
  -11.7241    1.2335   -1.0672 H   0  0  0  0  0  0  0  0  0  0  0  0
  -11.0824    1.8531    0.4519 H   0  0  0  0  0  0  0  0  0  0  0  0
  -12.6830    1.1077    0.4053 H   0  0  0  0  0  0  0  0  0  0  0  0
  -11.9203   -1.2909   -1.4228 H   0  0  0  0  0  0  0  0  0  0  0  0
  -12.8837   -1.4245    0.0460 H   0  0  0  0  0  0  0  0  0  0  0  0
  -11.4193   -2.3937   -0.1435 H   0  0  0  0  0  0  0  0  0  0  0  0
  -10.2724   -0.0089   -2.2504 H   0  0  0  0  0  0  0  0  0  0  0  0
   -8.0325    0.0227   -3.2166 H   0  0  0  0  0  0  0  0  0  0  0  0
   -1.1102   -1.2408   -3.3409 H   0  0  0  0  0  0  0  0  0  0  0  0
    1.3300   -1.0334   -3.3209 H   0  0  0  0  0  0  0  0  0  0  0  0
    2.9673    0.6682   -3.6033 H   0  0  0  0  0  0  0  0  0  0  0  0
    5.4098    0.9847   -3.6348 H   0  0  0  0  0  0  0  0  0  0  0  0
    7.9613    1.1978   -3.1240 H   0  0  0  0  0  0  0  0  0  0  0  0
   10.2114    1.2315   -2.1816 H   0  0  0  0  0  0  0  0  0  0  0  0
   11.4262   -1.2725   -0.2861 H   0  0  0  0  0  0  0  0  0  0  0  0
   12.8827   -0.3032   -0.0432 H   0  0  0  0  0  0  0  0  0  0  0  0
   11.8940   -0.0660   -1.4817 H   0  0  0  0  0  0  0  0  0  0  0  0
   10.7314   -0.5533    2.0479 H   0  0  0  0  0  0  0  0  0  0  0  0
   10.5839    1.1716    2.4329 H   0  0  0  0  0  0  0  0  0  0  0  0
   12.1671    0.4583    2.1524 H   0  0  0  0  0  0  0  0  0  0  0  0
   11.6636    2.4195   -0.9291 H   0  0  0  0  0  0  0  0  0  0  0  0
   11.0503    2.9096    0.6479 H   0  0  0  0  0  0  0  0  0  0  0  0
   12.6584    2.1927    0.5074 H   0  0  0  0  0  0  0  0  0  0  0  0
    8.6579    0.2585    1.6847 H   0  0  0  0  0  0  0  0  0  0  0  0
  1  2  1  0  0  0  0
  2  3  1  0  0  0  0
  3  4  1  0  0  0  0
  4  5  1  0  0  0  0
  3  6  1  0  0  0  0
  6  7  2  0  0  0  0
  7  8  1  0  0  0  0
  8  9  1  0  0  0  0
  9 10  2  0  0  0  0
 10 11  1  0  0  0  0
 11 12  2  0  0  0  0
 12 13  1  0  0  0  0
 13 14  2  0  0  0  0
 14 15  1  0  0  0  0
 15 16  2  0  0  0  0
 16 17  1  0  0  0  0
 17 18  2  0  0  0  0
 17 19  1  0  0  0  0
 19 20  1  0  0  0  0
 20 21  1  0  0  0  0
 19 22  1  0  0  0  0
 22 23  1  0  0  0  0
 19 24  1  0  0  0  0
 24 25  2  0  0  0  0
 25 26  1  0  0  0  0
 26 27  1  0  0  0  0
 27 28  1  0  0  0  0
 27 29  1  0  0  0  0
 27 30  1  0  0  0  0
 26 31  2  0  0  0  0
 31 32  1  0  0  0  0
 32 33  2  0  0  0  0
 12 34  1  0  0  0  0
 34 35  2  0  0  0  0
  8 36  2  0  0  0  0
 36 37  1  0  0  0  0
 37 38  2  0  0  0  0
 38 39  1  0  0  0  0
 39 40  2  0  0  0  0
 40 41  1  0  0  0  0
 41 42  2  0  0  0  0
 42 43  1  0  0  0  0
 43 44  1  0  0  0  0
 43 45  1  0  0  0  0
 43 46  1  0  0  0  0
 42 47  1  0  0  0  0
 47 48  2  0  0  0  0
 48  3  1  0  0  0  0
 38  6  1  0  0  0  0
 48 39  1  0  0  0  0
 35  9  1  0  0  0  0
 18 13  1  0  0  0  0
 33 24  1  0  0  0  0
 33 16  1  0  0  0  0
  1 49  1  0  0  0  0
  1 50  1  0  0  0  0
  1 51  1  0  0  0  0
  2 52  1  0  0  0  0
  2 53  1  0  0  0  0
  4 54  1  0  0  0  0
  4 55  1  0  0  0  0
  5 56  1  0  0  0  0
  5 57  1  0  0  0  0
  5 58  1  0  0  0  0
  7 59  1  0  0  0  0
 10 60  1  0  0  0  0
 11 61  1  0  0  0  0
 14 62  1  0  0  0  0
 15 63  1  0  0  0  0
 18 64  1  0  0  0  0
 20 65  1  0  0  0  0
 20 66  1  0  0  0  0
 21 67  1  0  0  0  0
 21 68  1  0  0  0  0
 21 69  1  0  0  0  0
 22 70  1  0  0  0  0
 22 71  1  0  0  0  0
 23 72  1  0  0  0  0
 23 73  1  0  0  0  0
 23 74  1  0  0  0  0
 25 75  1  0  0  0  0
 28 76  1  0  0  0  0
 28 77  1  0  0  0  0
 28 78  1  0  0  0  0
 29 79  1  0  0  0  0
 29 80  1  0  0  0  0
 29 81  1  0  0  0  0
 30 82  1  0  0  0  0
 30 83  1  0  0  0  0
 30 84  1  0  0  0  0
 31 85  1  0  0  0  0
 32 86  1  0  0  0  0
 34 87  1  0  0  0  0
 35 88  1  0  0  0  0
 36 89  1  0  0  0  0
 37 90  1  0  0  0  0
 40 91  1  0  0  0  0
 41 92  1  0  0  0  0
 44 93  1  0  0  0  0
 44 94  1  0  0  0  0
 44 95  1  0  0  0  0
 45 96  1  0  0  0  0
 45 97  1  0  0  0  0
 45 98  1  0  0  0  0
 46 99  1  0  0  0  0
 46100  1  0  0  0  0
 46101  1  0  0  0  0
 47102  1  0  0  0  0
M  END
