
  xtb     03212211063D
 energy: -53.647086234610 gnorm: 0.000104858959 xtb: 6.4.1 (afa7bdf)
 36 38  0     0  0            999 V2000
   -5.9574    0.9551   -0.0285 C   0  0  0  0  0  0  0  0  0  0  0  0
   -5.1909   -0.1919    0.3899 N   0  0  0  0  0  0  0  0  0  0  0  0
   -5.8894   -1.3619    0.8606 C   0  0  0  0  0  0  0  0  0  0  0  0
   -3.8260   -0.1721    0.3396 C   0  0  0  0  0  0  0  0  0  0  0  0
   -3.1264    0.9261   -0.1917 C   0  0  0  0  0  0  0  0  0  0  0  0
   -1.7538    0.9441   -0.2415 C   0  0  0  0  0  0  0  0  0  0  0  0
   -0.9865   -0.1275    0.2321 C   0  0  0  0  0  0  0  0  0  0  0  0
    0.4489   -0.1595    0.2013 C   0  0  0  0  0  0  0  0  0  0  0  0
    1.2762    0.8027   -0.2584 C   0  0  0  0  0  0  0  0  0  0  0  0
    2.6919    0.6532   -0.2387 C   0  0  0  0  0  0  0  0  0  0  0  0
    3.3490   -0.3648    0.1930 N   0  0  0  0  0  0  0  0  0  0  0  0
    4.6918   -0.2117    0.0784 C   0  0  0  0  0  0  0  0  0  0  0  0
    5.6560   -1.1427    0.4596 C   0  0  0  0  0  0  0  0  0  0  0  0
    6.9876   -0.8385    0.2772 C   0  0  0  0  0  0  0  0  0  0  0  0
    7.3796    0.3779   -0.2786 C   0  0  0  0  0  0  0  0  0  0  0  0
    6.4438    1.3182   -0.6648 C   0  0  0  0  0  0  0  0  0  0  0  0
    5.1049    1.0204   -0.4853 C   0  0  0  0  0  0  0  0  0  0  0  0
    3.7116    1.9820   -0.8662 S   0  0  0  0  0  0  0  0  0  0  0  0
   -1.6860   -1.2206    0.7604 C   0  0  0  0  0  0  0  0  0  0  0  0
   -3.0581   -1.2487    0.8162 C   0  0  0  0  0  0  0  0  0  0  0  0
   -5.6437    1.8530    0.5113 H   0  0  0  0  0  0  0  0  0  0  0  0
   -5.8503    1.1382   -1.1031 H   0  0  0  0  0  0  0  0  0  0  0  0
   -7.0103    0.7863    0.1839 H   0  0  0  0  0  0  0  0  0  0  0  0
   -6.9597   -1.2256    0.7261 H   0  0  0  0  0  0  0  0  0  0  0  0
   -5.6984   -1.5414    1.9241 H   0  0  0  0  0  0  0  0  0  0  0  0
   -5.5885   -2.2498    0.2976 H   0  0  0  0  0  0  0  0  0  0  0  0
   -3.6642    1.7763   -0.5781 H   0  0  0  0  0  0  0  0  0  0  0  0
   -1.2635    1.8090   -0.6612 H   0  0  0  0  0  0  0  0  0  0  0  0
    0.9130   -1.0563    0.5910 H   0  0  0  0  0  0  0  0  0  0  0  0
    0.9075    1.7331   -0.6638 H   0  0  0  0  0  0  0  0  0  0  0  0
    5.3413   -2.0807    0.8885 H   0  0  0  0  0  0  0  0  0  0  0  0
    7.7429   -1.5532    0.5690 H   0  0  0  0  0  0  0  0  0  0  0  0
    8.4301    0.5900   -0.4100 H   0  0  0  0  0  0  0  0  0  0  0  0
    6.7432    2.2613   -1.0956 H   0  0  0  0  0  0  0  0  0  0  0  0
   -1.1272   -2.0654    1.1376 H   0  0  0  0  0  0  0  0  0  0  0  0
   -3.5383   -2.1149    1.2409 H   0  0  0  0  0  0  0  0  0  0  0  0
  1  2  1  0  0  0  0
  2  3  1  0  0  0  0
  2  4  1  0  0  0  0
  4  5  2  0  0  0  0
  5  6  1  0  0  0  0
  6  7  2  0  0  0  0
  7  8  1  0  0  0  0
  8  9  2  0  0  0  0
  9 10  1  0  0  0  0
 10 11  2  0  0  0  0
 11 12  1  0  0  0  0
 12 13  2  0  0  0  0
 13 14  1  0  0  0  0
 14 15  2  0  0  0  0
 15 16  1  0  0  0  0
 16 17  2  0  0  0  0
 17 18  1  0  0  0  0
  7 19  1  0  0  0  0
 19 20  2  0  0  0  0
 20  4  1  0  0  0  0
 18 10  1  0  0  0  0
 17 12  1  0  0  0  0
  1 21  1  0  0  0  0
  1 22  1  0  0  0  0
  1 23  1  0  0  0  0
  3 24  1  0  0  0  0
  3 25  1  0  0  0  0
  3 26  1  0  0  0  0
  5 27  1  0  0  0  0
  6 28  1  0  0  0  0
  8 29  1  0  0  0  0
  9 30  1  0  0  0  0
 13 31  1  0  0  0  0
 14 32  1  0  0  0  0
 15 33  1  0  0  0  0
 16 34  1  0  0  0  0
 19 35  1  0  0  0  0
 20 36  1  0  0  0  0
M  END
