
  xtb     03212211323D
 energy: -84.786067548186 gnorm: 0.000246555864 xtb: 6.4.1 (afa7bdf)
 54 57  0     0  0            999 V2000
   -2.9056   -3.1458    0.8743 C   0  0  0  0  0  0  0  0  0  0  0  0
   -3.1153   -2.0896   -0.2204 C   0  0  0  0  0  0  0  0  0  0  0  0
   -3.0014   -2.7422   -1.6057 C   0  0  0  0  0  0  0  0  0  0  0  0
   -4.5339   -1.5327   -0.0741 C   0  0  0  0  0  0  0  0  0  0  0  0
   -2.0456   -1.0135   -0.0879 C   0  0  0  0  0  0  0  0  0  0  0  0
   -0.7181   -1.3569   -0.1837 C   0  0  0  0  0  0  0  0  0  0  0  0
    0.3055   -0.3986   -0.0666 C   0  0  0  0  0  0  0  0  0  0  0  0
   -0.0394    0.9553    0.1535 C   0  0  0  0  0  0  0  0  0  0  0  0
   -1.4047    1.3246    0.2506 C   0  0  0  0  0  0  0  0  0  0  0  0
   -1.7856    2.7812    0.4831 C   0  0  0  0  0  0  0  0  0  0  0  0
   -1.1837    3.2554    1.8135 C   0  0  0  0  0  0  0  0  0  0  0  0
   -3.3030    2.9870    0.5544 C   0  0  0  0  0  0  0  0  0  0  0  0
   -1.2499    3.6354   -0.6749 C   0  0  0  0  0  0  0  0  0  0  0  0
   -2.3559    0.3348    0.1286 C   0  0  0  0  0  0  0  0  0  0  0  0
    0.8835    1.8811    0.2718 O   0  0  0  0  0  0  0  0  0  0  0  0
    2.3017    1.6883    0.1878 B   0  0  0  0  0  4  0  0  0  0  0  0
    2.8109    2.4087   -0.8681 F   0  0  0  0  0  0  0  0  0  0  0  0
    2.8959    2.0676    1.3691 F   0  0  0  0  0  0  0  0  0  0  0  0
    2.6609    0.1442   -0.0615 N   0  0  0  0  0  4  0  0  0  0  0  0
    1.6995   -0.7562   -0.1645 C   0  0  0  0  0  0  0  0  0  0  0  0
    2.0261   -2.0552   -0.3683 N   0  0  0  0  0  0  0  0  0  0  0  0
    3.3092   -2.5832   -0.4906 C   0  0  0  0  0  0  0  0  0  0  0  0
    3.4541   -3.7693   -0.6713 O   0  0  0  0  0  0  0  0  0  0  0  0
    4.3488   -1.5728   -0.3768 C   0  0  0  0  0  0  0  0  0  0  0  0
    5.6883   -1.9508   -0.4807 C   0  0  0  0  0  0  0  0  0  0  0  0
    6.6832   -1.0064   -0.3752 C   0  0  0  0  0  0  0  0  0  0  0  0
    6.3393    0.3255   -0.1645 C   0  0  0  0  0  0  0  0  0  0  0  0
    5.0212    0.7165   -0.0594 C   0  0  0  0  0  0  0  0  0  0  0  0
    3.9960   -0.2278   -0.1637 C   0  0  0  0  0  0  0  0  0  0  0  0
   -1.9483   -3.6490    0.7703 H   0  0  0  0  0  0  0  0  0  0  0  0
   -2.9413   -2.6808    1.8570 H   0  0  0  0  0  0  0  0  0  0  0  0
   -3.6885   -3.8988    0.8205 H   0  0  0  0  0  0  0  0  0  0  0  0
   -3.7828   -3.4880   -1.7320 H   0  0  0  0  0  0  0  0  0  0  0  0
   -2.0419   -3.2338   -1.7407 H   0  0  0  0  0  0  0  0  0  0  0  0
   -3.1120   -1.9914   -2.3849 H   0  0  0  0  0  0  0  0  0  0  0  0
   -4.7510   -0.8012   -0.8486 H   0  0  0  0  0  0  0  0  0  0  0  0
   -4.6781   -1.0775    0.9028 H   0  0  0  0  0  0  0  0  0  0  0  0
   -5.2509   -2.3449   -0.1727 H   0  0  0  0  0  0  0  0  0  0  0  0
   -0.4719   -2.3933   -0.3544 H   0  0  0  0  0  0  0  0  0  0  0  0
   -1.5485    2.6386    2.6329 H   0  0  0  0  0  0  0  0  0  0  0  0
   -0.1008    3.2012    1.7912 H   0  0  0  0  0  0  0  0  0  0  0  0
   -1.4729    4.2867    2.0014 H   0  0  0  0  0  0  0  0  0  0  0  0
   -3.7878    2.6965   -0.3751 H   0  0  0  0  0  0  0  0  0  0  0  0
   -3.5076    4.0425    0.7190 H   0  0  0  0  0  0  0  0  0  0  0  0
   -3.7415    2.4318    1.3806 H   0  0  0  0  0  0  0  0  0  0  0  0
   -0.1677    3.5871   -0.7256 H   0  0  0  0  0  0  0  0  0  0  0  0
   -1.6608    3.2875   -1.6209 H   0  0  0  0  0  0  0  0  0  0  0  0
   -1.5415    4.6732   -0.5319 H   0  0  0  0  0  0  0  0  0  0  0  0
   -3.3910    0.6106    0.2025 H   0  0  0  0  0  0  0  0  0  0  0  0
    1.2790   -2.7350   -0.4430 H   0  0  0  0  0  0  0  0  0  0  0  0
    5.9057   -2.9952   -0.6443 H   0  0  0  0  0  0  0  0  0  0  0  0
    7.7199   -1.2944   -0.4550 H   0  0  0  0  0  0  0  0  0  0  0  0
    7.1150    1.0713   -0.0810 H   0  0  0  0  0  0  0  0  0  0  0  0
    4.7854    1.7523    0.1031 H   0  0  0  0  0  0  0  0  0  0  0  0
  1  2  1  0  0  0  0
  2  3  1  0  0  0  0
  2  4  1  0  0  0  0
  2  5  1  0  0  0  0
  5  6  2  0  0  0  0
  6  7  1  0  0  0  0
  7  8  2  0  0  0  0
  8  9  1  0  0  0  0
  9 10  1  0  0  0  0
 10 11  1  0  0  0  0
 10 12  1  0  0  0  0
 10 13  1  0  0  0  0
  9 14  2  0  0  0  0
  8 15  1  0  0  0  0
 15 16  1  0  0  0  0
 16 17  1  0  0  0  0
 16 18  1  0  0  0  0
 16 19  1  0  0  0  0
 19 20  2  0  0  0  0
 20 21  1  0  0  0  0
 21 22  1  0  0  0  0
 22 23  2  0  0  0  0
 22 24  1  0  0  0  0
 24 25  2  0  0  0  0
 25 26  1  0  0  0  0
 26 27  2  0  0  0  0
 27 28  1  0  0  0  0
 28 29  2  0  0  0  0
 14  5  1  0  0  0  0
 29 19  1  0  0  0  0
 20  7  1  0  0  0  0
 29 24  1  0  0  0  0
  1 30  1  0  0  0  0
  1 31  1  0  0  0  0
  1 32  1  0  0  0  0
  3 33  1  0  0  0  0
  3 34  1  0  0  0  0
  3 35  1  0  0  0  0
  4 36  1  0  0  0  0
  4 37  1  0  0  0  0
  4 38  1  0  0  0  0
  6 39  1  0  0  0  0
 11 40  1  0  0  0  0
 11 41  1  0  0  0  0
 11 42  1  0  0  0  0
 12 43  1  0  0  0  0
 12 44  1  0  0  0  0
 12 45  1  0  0  0  0
 13 46  1  0  0  0  0
 13 47  1  0  0  0  0
 13 48  1  0  0  0  0
 14 49  1  0  0  0  0
 21 50  1  0  0  0  0
 25 51  1  0  0  0  0
 26 52  1  0  0  0  0
 27 53  1  0  0  0  0
 28 54  1  0  0  0  0
M  CHG  1  16  -1
M  CHG  1  19   1
M  END
