
  xtb     03212211013D
 energy: -60.902051838911 gnorm: 0.000321377593 xtb: 6.4.1 (afa7bdf)
 43 44  0     0  0            999 V2000
    7.6105   -0.9390    0.7570 C   0  0  0  0  0  0  0  0  0  0  0  0
    6.8173    0.0017    0.0058 N   0  0  0  0  0  0  0  0  0  0  0  0
    7.4985    0.9522   -0.8368 C   0  0  0  0  0  0  0  0  0  0  0  0
    5.4523   -0.0261    0.0714 C   0  0  0  0  0  0  0  0  0  0  0  0
    4.7802   -0.8168    1.0184 C   0  0  0  0  0  0  0  0  0  0  0  0
    3.4082   -0.8352    1.0800 C   0  0  0  0  0  0  0  0  0  0  0  0
    2.6127   -0.0777    0.2093 C   0  0  0  0  0  0  0  0  0  0  0  0
    1.1819   -0.1443    0.3276 C   0  0  0  0  0  0  0  0  0  0  0  0
    0.2722    0.4759   -0.4583 C   0  0  0  0  0  0  0  0  0  0  0  0
   -1.1471    0.3971   -0.3271 C   0  0  0  0  0  0  0  0  0  0  0  0
   -1.8359   -0.2246    0.6614 C   0  0  0  0  0  0  0  0  0  0  0  0
   -3.2570   -0.3025    0.7811 C   0  0  0  0  0  0  0  0  0  0  0  0
   -4.1651    0.1382   -0.1177 C   0  0  0  0  0  0  0  0  0  0  0  0
   -5.5990    0.0580    0.0023 C   0  0  0  0  0  0  0  0  0  0  0  0
   -6.2567   -0.4053    1.1513 C   0  0  0  0  0  0  0  0  0  0  0  0
   -7.6298   -0.4604    1.2127 C   0  0  0  0  0  0  0  0  0  0  0  0
   -8.3993   -0.0518    0.1196 C   0  0  0  0  0  0  0  0  0  0  0  0
   -9.8065   -0.1076    0.1815 C   0  0  0  0  0  0  0  0  0  0  0  0
  -10.9522   -0.1531    0.2323 N   0  0  0  0  0  0  0  0  0  0  0  0
   -7.7630    0.4150   -1.0338 C   0  0  0  0  0  0  0  0  0  0  0  0
   -6.3896    0.4679   -1.0827 C   0  0  0  0  0  0  0  0  0  0  0  0
    3.2873    0.7088   -0.7334 C   0  0  0  0  0  0  0  0  0  0  0  0
    4.6590    0.7369   -0.8027 C   0  0  0  0  0  0  0  0  0  0  0  0
    7.6292   -0.6924    1.8248 H   0  0  0  0  0  0  0  0  0  0  0  0
    8.6328   -0.9282    0.3856 H   0  0  0  0  0  0  0  0  0  0  0  0
    7.2207   -1.9528    0.6398 H   0  0  0  0  0  0  0  0  0  0  0  0
    7.4265    0.6828   -1.8970 H   0  0  0  0  0  0  0  0  0  0  0  0
    8.5508    0.9885   -0.5632 H   0  0  0  0  0  0  0  0  0  0  0  0
    7.0821    1.9527   -0.7016 H   0  0  0  0  0  0  0  0  0  0  0  0
    5.3370   -1.4119    1.7240 H   0  0  0  0  0  0  0  0  0  0  0  0
    2.9266   -1.4525    1.8259 H   0  0  0  0  0  0  0  0  0  0  0  0
    0.8275   -0.7737    1.1338 H   0  0  0  0  0  0  0  0  0  0  0  0
    0.6221    1.0866   -1.2797 H   0  0  0  0  0  0  0  0  0  0  0  0
   -1.7060    0.9046   -1.1022 H   0  0  0  0  0  0  0  0  0  0  0  0
   -1.2816   -0.7055    1.4558 H   0  0  0  0  0  0  0  0  0  0  0  0
   -3.6095   -0.7793    1.6864 H   0  0  0  0  0  0  0  0  0  0  0  0
   -3.8149    0.5872   -1.0375 H   0  0  0  0  0  0  0  0  0  0  0  0
   -5.6836   -0.7196    2.0095 H   0  0  0  0  0  0  0  0  0  0  0  0
   -8.1246   -0.8175    2.1045 H   0  0  0  0  0  0  0  0  0  0  0  0
   -8.3575    0.7317   -1.8786 H   0  0  0  0  0  0  0  0  0  0  0  0
   -5.9039    0.8301   -1.9778 H   0  0  0  0  0  0  0  0  0  0  0  0
    2.7251    1.3116   -1.4301 H   0  0  0  0  0  0  0  0  0  0  0  0
    5.1223    1.3508   -1.5580 H   0  0  0  0  0  0  0  0  0  0  0  0
  1  2  1  0  0  0  0
  2  3  1  0  0  0  0
  2  4  1  0  0  0  0
  4  5  2  0  0  0  0
  5  6  1  0  0  0  0
  6  7  2  0  0  0  0
  7  8  1  0  0  0  0
  8  9  2  0  0  0  0
  9 10  1  0  0  0  0
 10 11  2  0  0  0  0
 11 12  1  0  0  0  0
 12 13  2  0  0  0  0
 13 14  1  0  0  0  0
 14 15  2  0  0  0  0
 15 16  1  0  0  0  0
 16 17  2  0  0  0  0
 17 18  1  0  0  0  0
 18 19  3  0  0  0  0
 17 20  1  0  0  0  0
 20 21  2  0  0  0  0
  7 22  1  0  0  0  0
 22 23  2  0  0  0  0
 23  4  1  0  0  0  0
 21 14  1  0  0  0  0
  1 24  1  0  0  0  0
  1 25  1  0  0  0  0
  1 26  1  0  0  0  0
  3 27  1  0  0  0  0
  3 28  1  0  0  0  0
  3 29  1  0  0  0  0
  5 30  1  0  0  0  0
  6 31  1  0  0  0  0
  8 32  1  0  0  0  0
  9 33  1  0  0  0  0
 10 34  1  0  0  0  0
 11 35  1  0  0  0  0
 12 36  1  0  0  0  0
 13 37  1  0  0  0  0
 15 38  1  0  0  0  0
 16 39  1  0  0  0  0
 20 40  1  0  0  0  0
 21 41  1  0  0  0  0
 22 42  1  0  0  0  0
 23 43  1  0  0  0  0
M  END
