
  xtb     03212210403D
 energy: -131.076148739082 gnorm: 0.000091759219 xtb: 6.4.1 (afa7bdf)
 79 86  0     0  0            999 V2000
   -4.3027   -6.3689    1.2997 C   0  0  0  0  0  0  0  0  0  0  0  0
   -3.9945   -6.5080   -0.1924 C   0  0  0  0  0  0  0  0  0  0  0  0
   -2.5789   -6.4504   -0.4918 N   0  0  0  0  0  0  0  0  0  0  0  0
   -1.9139   -7.7061   -0.7598 C   0  0  0  0  0  0  0  0  0  0  0  0
   -1.4123   -8.4189    0.4980 C   0  0  0  0  0  0  0  0  0  0  0  0
   -1.8765   -5.2852   -0.3590 C   0  0  0  0  0  0  0  0  0  0  0  0
   -0.4681   -5.2587   -0.3964 C   0  0  0  0  0  0  0  0  0  0  0  0
    0.2308   -4.0816   -0.2978 C   0  0  0  0  0  0  0  0  0  0  0  0
   -0.4317   -2.8600   -0.1535 C   0  0  0  0  0  0  0  0  0  0  0  0
    0.3086   -1.6245   -0.0591 C   0  0  0  0  0  0  0  0  0  0  0  0
    1.6387   -1.6724   -0.0851 N   0  0  0  0  0  0  0  0  0  0  0  0
    2.2635   -0.5075   -0.0024 C   0  0  0  0  0  0  0  0  0  0  0  0
    3.5850   -0.6218   -0.0398 O   0  0  0  0  0  0  0  0  0  0  0  0
    4.4976    0.4020    0.0273 C   0  0  0  0  0  0  0  0  0  0  0  0
    4.2201    1.7466    0.2471 C   0  0  0  0  0  0  0  0  0  0  0  0
    5.2588    2.6559    0.2933 C   0  0  0  0  0  0  0  0  0  0  0  0
    6.5816    2.2525    0.1249 C   0  0  0  0  0  0  0  0  0  0  0  0
    7.6733    3.1950    0.1643 C   0  0  0  0  0  0  0  0  0  0  0  0
    8.9089    2.8859    0.0108 N   0  0  0  0  0  0  0  0  0  0  0  0
    9.7362    3.9604    0.0885 C   0  0  0  0  0  0  0  0  0  0  0  0
   11.1232    3.9372   -0.0397 C   0  0  0  0  0  0  0  0  0  0  0  0
   11.8208    5.1209    0.0638 C   0  0  0  0  0  0  0  0  0  0  0  0
   11.1623    6.3282    0.2928 C   0  0  0  0  0  0  0  0  0  0  0  0
    9.7884    6.3773    0.4235 C   0  0  0  0  0  0  0  0  0  0  0  0
    9.0804    5.1924    0.3206 C   0  0  0  0  0  0  0  0  0  0  0  0
    7.3698    4.9293    0.4367 S   0  0  0  0  0  0  0  0  0  0  0  0
    6.8509    0.8964   -0.0903 C   0  0  0  0  0  0  0  0  0  0  0  0
    5.8222   -0.0142   -0.1373 C   0  0  0  0  0  0  0  0  0  0  0  0
    1.6625    0.6704    0.0980 N   0  0  0  0  0  0  0  0  0  0  0  0
    0.3336    0.6153    0.1114 C   0  0  0  0  0  0  0  0  0  0  0  0
   -0.2393    1.8093    0.2484 O   0  0  0  0  0  0  0  0  0  0  0  0
   -1.5985    1.9933    0.1456 C   0  0  0  0  0  0  0  0  0  0  0  0
   -2.4244    1.2663   -0.7035 C   0  0  0  0  0  0  0  0  0  0  0  0
   -3.7679    1.5743   -0.7750 C   0  0  0  0  0  0  0  0  0  0  0  0
   -4.3070    2.6118   -0.0158 C   0  0  0  0  0  0  0  0  0  0  0  0
   -5.7077    2.9530   -0.0847 C   0  0  0  0  0  0  0  0  0  0  0  0
   -6.2527    3.9219    0.5551 N   0  0  0  0  0  0  0  0  0  0  0  0
   -7.5836    4.0359    0.3095 C   0  0  0  0  0  0  0  0  0  0  0  0
   -8.4379    4.9922    0.8540 C   0  0  0  0  0  0  0  0  0  0  0  0
   -9.7689    4.9745    0.4983 C   0  0  0  0  0  0  0  0  0  0  0  0
  -10.2654    4.0210   -0.3895 C   0  0  0  0  0  0  0  0  0  0  0  0
   -9.4389    3.0625   -0.9420 C   0  0  0  0  0  0  0  0  0  0  0  0
   -8.1002    3.0741   -0.5904 C   0  0  0  0  0  0  0  0  0  0  0  0
   -6.8253    2.0193   -1.1110 S   0  0  0  0  0  0  0  0  0  0  0  0
   -3.4635    3.3471    0.8226 C   0  0  0  0  0  0  0  0  0  0  0  0
   -2.1241    3.0406    0.9015 C   0  0  0  0  0  0  0  0  0  0  0  0
   -0.3858   -0.4824    0.0394 N   0  0  0  0  0  0  0  0  0  0  0  0
   -1.8283   -2.8709   -0.1072 C   0  0  0  0  0  0  0  0  0  0  0  0
   -2.5302   -4.0465   -0.2021 C   0  0  0  0  0  0  0  0  0  0  0  0
   -3.8616   -7.1879    1.8610 H   0  0  0  0  0  0  0  0  0  0  0  0
   -3.9035   -5.4362    1.6887 H   0  0  0  0  0  0  0  0  0  0  0  0
   -5.3784   -6.3816    1.4563 H   0  0  0  0  0  0  0  0  0  0  0  0
   -4.3717   -7.4696   -0.5468 H   0  0  0  0  0  0  0  0  0  0  0  0
   -4.5209   -5.7291   -0.7532 H   0  0  0  0  0  0  0  0  0  0  0  0
   -1.0810   -7.5261   -1.4436 H   0  0  0  0  0  0  0  0  0  0  0  0
   -2.6217   -8.3566   -1.2823 H   0  0  0  0  0  0  0  0  0  0  0  0
   -2.2466   -8.7332    1.1196 H   0  0  0  0  0  0  0  0  0  0  0  0
   -0.7763   -7.7595    1.0827 H   0  0  0  0  0  0  0  0  0  0  0  0
   -0.8413   -9.3011    0.2199 H   0  0  0  0  0  0  0  0  0  0  0  0
    0.0946   -6.1722   -0.4925 H   0  0  0  0  0  0  0  0  0  0  0  0
    1.3089   -4.0800   -0.3246 H   0  0  0  0  0  0  0  0  0  0  0  0
    3.2029    2.0744    0.3747 H   0  0  0  0  0  0  0  0  0  0  0  0
    5.0377    3.6999    0.4628 H   0  0  0  0  0  0  0  0  0  0  0  0
   11.6208    2.9973   -0.2169 H   0  0  0  0  0  0  0  0  0  0  0  0
   12.8961    5.1170   -0.0340 H   0  0  0  0  0  0  0  0  0  0  0  0
   11.7349    7.2403    0.3692 H   0  0  0  0  0  0  0  0  0  0  0  0
    9.2753    7.3097    0.6008 H   0  0  0  0  0  0  0  0  0  0  0  0
    7.8753    0.5857   -0.2186 H   0  0  0  0  0  0  0  0  0  0  0  0
    6.0129   -1.0629   -0.3026 H   0  0  0  0  0  0  0  0  0  0  0  0
   -2.0184    0.4670   -1.3010 H   0  0  0  0  0  0  0  0  0  0  0  0
   -4.4086    1.0077   -1.4352 H   0  0  0  0  0  0  0  0  0  0  0  0
   -8.0417    5.7245    1.5389 H   0  0  0  0  0  0  0  0  0  0  0  0
  -10.4417    5.7107    0.9120 H   0  0  0  0  0  0  0  0  0  0  0  0
  -11.3129    4.0317   -0.6505 H   0  0  0  0  0  0  0  0  0  0  0  0
   -9.8195    2.3234   -1.6298 H   0  0  0  0  0  0  0  0  0  0  0  0
   -3.8842    4.1527    1.4027 H   0  0  0  0  0  0  0  0  0  0  0  0
   -1.4613    3.6005    1.5422 H   0  0  0  0  0  0  0  0  0  0  0  0
   -2.3513   -1.9343    0.0102 H   0  0  0  0  0  0  0  0  0  0  0  0
   -3.6056   -3.9962   -0.1661 H   0  0  0  0  0  0  0  0  0  0  0  0
  1  2  1  0  0  0  0
  2  3  1  0  0  0  0
  3  4  1  0  0  0  0
  4  5  1  0  0  0  0
  3  6  1  0  0  0  0
  6  7  2  0  0  0  0
  7  8  1  0  0  0  0
  8  9  2  0  0  0  0
  9 10  1  0  0  0  0
 10 11  2  0  0  0  0
 11 12  1  0  0  0  0
 12 13  1  0  0  0  0
 13 14  1  0  0  0  0
 14 15  2  0  0  0  0
 15 16  1  0  0  0  0
 16 17  2  0  0  0  0
 17 18  1  0  0  0  0
 18 19  2  0  0  0  0
 19 20  1  0  0  0  0
 20 21  2  0  0  0  0
 21 22  1  0  0  0  0
 22 23  2  0  0  0  0
 23 24  1  0  0  0  0
 24 25  2  0  0  0  0
 25 26  1  0  0  0  0
 17 27  1  0  0  0  0
 27 28  2  0  0  0  0
 12 29  2  0  0  0  0
 29 30  1  0  0  0  0
 30 31  1  0  0  0  0
 31 32  1  0  0  0  0
 32 33  2  0  0  0  0
 33 34  1  0  0  0  0
 34 35  2  0  0  0  0
 35 36  1  0  0  0  0
 36 37  2  0  0  0  0
 37 38  1  0  0  0  0
 38 39  2  0  0  0  0
 39 40  1  0  0  0  0
 40 41  2  0  0  0  0
 41 42  1  0  0  0  0
 42 43  2  0  0  0  0
 43 44  1  0  0  0  0
 35 45  1  0  0  0  0
 45 46  2  0  0  0  0
 30 47  2  0  0  0  0
  9 48  1  0  0  0  0
 48 49  2  0  0  0  0
 49  6  1  0  0  0  0
 47 10  1  0  0  0  0
 28 14  1  0  0  0  0
 46 32  1  0  0  0  0
 26 18  1  0  0  0  0
 44 36  1  0  0  0  0
 25 20  1  0  0  0  0
 43 38  1  0  0  0  0
  1 50  1  0  0  0  0
  1 51  1  0  0  0  0
  1 52  1  0  0  0  0
  2 53  1  0  0  0  0
  2 54  1  0  0  0  0
  4 55  1  0  0  0  0
  4 56  1  0  0  0  0
  5 57  1  0  0  0  0
  5 58  1  0  0  0  0
  5 59  1  0  0  0  0
  7 60  1  0  0  0  0
  8 61  1  0  0  0  0
 15 62  1  0  0  0  0
 16 63  1  0  0  0  0
 21 64  1  0  0  0  0
 22 65  1  0  0  0  0
 23 66  1  0  0  0  0
 24 67  1  0  0  0  0
 27 68  1  0  0  0  0
 28 69  1  0  0  0  0
 33 70  1  0  0  0  0
 34 71  1  0  0  0  0
 39 72  1  0  0  0  0
 40 73  1  0  0  0  0
 41 74  1  0  0  0  0
 42 75  1  0  0  0  0
 45 76  1  0  0  0  0
 46 77  1  0  0  0  0
 48 78  1  0  0  0  0
 49 79  1  0  0  0  0
M  END
