
  xtb     03212211333D
 energy: -73.385981988207 gnorm: 0.000160410771 xtb: 6.4.1 (afa7bdf)
 42 46  0     0  0            999 V2000
    6.1725   -1.4986    1.2912 O   0  0  0  0  0  0  0  0  0  0  0  0
    5.3482   -0.6768    0.5853 C   0  0  0  0  0  0  0  0  0  0  0  0
    5.8181    0.4552   -0.0716 C   0  0  0  0  0  0  0  0  0  0  0  0
    4.9364    1.2531   -0.7790 C   0  0  0  0  0  0  0  0  0  0  0  0
    3.5911    0.9449   -0.8353 C   0  0  0  0  0  0  0  0  0  0  0  0
    3.1093   -0.1834   -0.1719 C   0  0  0  0  0  0  0  0  0  0  0  0
    1.7100   -0.5754   -0.2067 C   0  0  0  0  0  0  0  0  0  0  0  0
    0.6529    0.2463   -0.1280 N   0  0  0  0  0  4  0  0  0  0  0  0
   -0.4965   -0.5178   -0.1714 C   0  0  0  0  0  0  0  0  0  0  0  0
   -1.7693    0.0197    0.0175 C   0  0  0  0  0  0  0  0  0  0  0  0
   -2.9489   -0.8479   -0.0727 C   0  0  0  0  0  0  0  0  0  0  0  0
   -3.8717   -0.9040    0.9696 C   0  0  0  0  0  0  0  0  0  0  0  0
   -4.9798   -1.7255    0.8763 C   0  0  0  0  0  0  0  0  0  0  0  0
   -5.1869   -2.4909   -0.2595 C   0  0  0  0  0  0  0  0  0  0  0  0
   -4.2753   -2.4383   -1.3013 C   0  0  0  0  0  0  0  0  0  0  0  0
   -3.1591   -1.6280   -1.2083 C   0  0  0  0  0  0  0  0  0  0  0  0
   -1.9111    1.3751    0.3308 C   0  0  0  0  0  0  0  0  0  0  0  0
   -3.0566    2.1562    0.6004 C   0  0  0  0  0  0  0  0  0  0  0  0
   -2.6129    3.4339    0.8730 C   0  0  0  0  0  0  0  0  0  0  0  0
   -1.2212    3.4148    0.7520 C   0  0  0  0  0  0  0  0  0  0  0  0
   -0.8086    2.1914    0.4309 N   0  0  0  0  0  0  0  0  0  0  0  0
    0.6237    1.7911    0.0134 B   0  0  0  0  0  4  0  0  0  0  0  0
    0.8838    2.3843   -1.2134 F   0  0  0  0  0  0  0  0  0  0  0  0
    1.5311    2.2175    0.9525 F   0  0  0  0  0  0  0  0  0  0  0  0
   -0.1185   -1.8770   -0.2974 C   0  0  0  0  0  0  0  0  0  0  0  0
    1.2512   -1.9096   -0.3063 C   0  0  0  0  0  0  0  0  0  0  0  0
    3.9998   -0.9977    0.5269 C   0  0  0  0  0  0  0  0  0  0  0  0
    7.0739   -1.1554    1.2664 H   0  0  0  0  0  0  0  0  0  0  0  0
    6.8697    0.7071   -0.0257 H   0  0  0  0  0  0  0  0  0  0  0  0
    5.3060    2.1281   -1.2919 H   0  0  0  0  0  0  0  0  0  0  0  0
    2.9219    1.5679   -1.4006 H   0  0  0  0  0  0  0  0  0  0  0  0
   -3.6984   -0.3221    1.8624 H   0  0  0  0  0  0  0  0  0  0  0  0
   -5.6846   -1.7690    1.6933 H   0  0  0  0  0  0  0  0  0  0  0  0
   -6.0557   -3.1278   -0.3321 H   0  0  0  0  0  0  0  0  0  0  0  0
   -4.4342   -3.0315   -2.1895 H   0  0  0  0  0  0  0  0  0  0  0  0
   -2.4546   -1.5735   -2.0248 H   0  0  0  0  0  0  0  0  0  0  0  0
   -4.0702    1.8073    0.5809 H   0  0  0  0  0  0  0  0  0  0  0  0
   -3.2088    4.2884    1.1257 H   0  0  0  0  0  0  0  0  0  0  0  0
   -0.5176    4.2151    0.8772 H   0  0  0  0  0  0  0  0  0  0  0  0
   -0.7954   -2.7073   -0.3454 H   0  0  0  0  0  0  0  0  0  0  0  0
    1.8823   -2.7716   -0.3958 H   0  0  0  0  0  0  0  0  0  0  0  0
    3.6545   -1.8686    1.0604 H   0  0  0  0  0  0  0  0  0  0  0  0
  1  2  1  0  0  0  0
  2  3  2  0  0  0  0
  3  4  1  0  0  0  0
  4  5  2  0  0  0  0
  5  6  1  0  0  0  0
  6  7  1  0  0  0  0
  7  8  2  0  0  0  0
  8  9  1  0  0  0  0
  9 10  2  0  0  0  0
 10 11  1  0  0  0  0
 11 12  2  0  0  0  0
 12 13  1  0  0  0  0
 13 14  2  0  0  0  0
 14 15  1  0  0  0  0
 15 16  2  0  0  0  0
 10 17  1  0  0  0  0
 17 18  2  0  0  0  0
 18 19  1  0  0  0  0
 19 20  2  0  0  0  0
 20 21  1  0  0  0  0
 21 22  1  0  0  0  0
 22 23  1  0  0  0  0
 22 24  1  0  0  0  0
  9 25  1  0  0  0  0
 25 26  2  0  0  0  0
  6 27  2  0  0  0  0
 27  2  1  0  0  0  0
 26  7  1  0  0  0  0
 22  8  1  0  0  0  0
 16 11  1  0  0  0  0
 21 17  1  0  0  0  0
  1 28  1  0  0  0  0
  3 29  1  0  0  0  0
  4 30  1  0  0  0  0
  5 31  1  0  0  0  0
 12 32  1  0  0  0  0
 13 33  1  0  0  0  0
 14 34  1  0  0  0  0
 15 35  1  0  0  0  0
 16 36  1  0  0  0  0
 18 37  1  0  0  0  0
 19 38  1  0  0  0  0
 20 39  1  0  0  0  0
 25 40  1  0  0  0  0
 26 41  1  0  0  0  0
 27 42  1  0  0  0  0
M  CHG  1   8   1
M  CHG  1  22  -1
M  END
