
  xtb     03212211333D
 energy: -39.400923379031 gnorm: 0.000210789119 xtb: 6.4.1 (afa7bdf)
 24 26  0     0  0            999 V2000
   -4.0928    0.1814   -0.1503 C   0  0  0  0  0  0  0  0  0  0  0  0
   -2.6125   -0.0406   -0.1782 C   0  0  0  0  0  0  0  0  0  0  0  0
   -2.0769   -1.1363   -0.8458 C   0  0  0  0  0  0  0  0  0  0  0  0
   -0.7065   -1.3646   -0.9101 C   0  0  0  0  0  0  0  0  0  0  0  0
    0.1384   -0.4694   -0.2883 C   0  0  0  0  0  0  0  0  0  0  0  0
   -0.3924    0.6439    0.3895 C   0  0  0  0  0  0  0  0  0  0  0  0
   -1.7525    0.8632    0.4482 C   0  0  0  0  0  0  0  0  0  0  0  0
    0.7113    1.4480    0.9714 C   0  0  0  0  0  0  0  0  0  0  0  0
    0.6358    2.4658    1.6167 O   0  0  0  0  0  0  0  0  0  0  0  0
    1.9508    0.7103    0.5776 C   0  0  0  0  0  0  0  0  0  0  0  0
    3.2774    0.9804    0.8330 C   0  0  0  0  0  0  0  0  0  0  0  0
    4.2063    0.0749    0.3136 C   0  0  0  0  0  0  0  0  0  0  0  0
    3.8824   -0.9929   -0.3879 N   0  0  0  0  0  0  0  0  0  0  0  0
    2.6029   -1.2516   -0.6333 C   0  0  0  0  0  0  0  0  0  0  0  0
    1.5944   -0.4277   -0.1709 C   0  0  0  0  0  0  0  0  0  0  0  0
   -4.3818    0.7596    0.7237 H   0  0  0  0  0  0  0  0  0  0  0  0
   -4.6286   -0.7651   -0.1433 H   0  0  0  0  0  0  0  0  0  0  0  0
   -4.4011    0.7351   -1.0379 H   0  0  0  0  0  0  0  0  0  0  0  0
   -2.7479   -1.8325   -1.3286 H   0  0  0  0  0  0  0  0  0  0  0  0
   -0.3199   -2.2252   -1.4345 H   0  0  0  0  0  0  0  0  0  0  0  0
   -2.1405    1.7229    0.9742 H   0  0  0  0  0  0  0  0  0  0  0  0
    3.5810    1.8440    1.4032 H   0  0  0  0  0  0  0  0  0  0  0  0
    5.2668    0.2191    0.4724 H   0  0  0  0  0  0  0  0  0  0  0  0
    2.4059   -2.1427   -1.2140 H   0  0  0  0  0  0  0  0  0  0  0  0
  1  2  1  0  0  0  0
  2  3  2  0  0  0  0
  3  4  1  0  0  0  0
  4  5  2  0  0  0  0
  5  6  1  0  0  0  0
  6  7  2  0  0  0  0
  6  8  1  0  0  0  0
  8  9  2  0  0  0  0
  8 10  1  0  0  0  0
 10 11  2  0  0  0  0
 11 12  1  0  0  0  0
 12 13  2  0  0  0  0
 13 14  1  0  0  0  0
 14 15  2  0  0  0  0
  7  2  1  0  0  0  0
 15 10  1  0  0  0  0
 15  5  1  0  0  0  0
  1 16  1  0  0  0  0
  1 17  1  0  0  0  0
  1 18  1  0  0  0  0
  3 19  1  0  0  0  0
  4 20  1  0  0  0  0
  7 21  1  0  0  0  0
 11 22  1  0  0  0  0
 12 23  1  0  0  0  0
 14 24  1  0  0  0  0
M  END
