
  xtb     03212212263D
 energy: -50.582629422349 gnorm: 0.000096132673 xtb: 6.4.1 (afa7bdf)
 26 28  0     0  0            999 V2000
   -3.8940   -1.4258   -0.8778 N   0  0  0  0  0  0  0  0  0  0  0  0
   -2.7292   -0.7745   -0.5167 C   0  0  0  0  0  0  0  0  0  0  0  0
   -1.4971   -1.3283   -0.7343 C   0  0  0  0  0  0  0  0  0  0  0  0
   -0.3165   -0.6648   -0.3388 C   0  0  0  0  0  0  0  0  0  0  0  0
    0.8662   -1.2231   -0.5726 N   0  0  0  0  0  0  0  0  0  0  0  0
    1.9517   -0.5427   -0.1982 C   0  0  0  0  0  0  0  0  0  0  0  0
    3.2327   -1.0954   -0.4257 C   0  0  0  0  0  0  0  0  0  0  0  0
    4.3513   -0.4124   -0.0464 C   0  0  0  0  0  0  0  0  0  0  0  0
    5.9124   -1.0863   -0.3226 Cl  0  0  0  0  0  0  0  0  0  0  0  0
    4.2470    0.8571    0.5783 C   0  0  0  0  0  0  0  0  0  0  0  0
    5.6847    1.6858    1.0407 Cl  0  0  0  0  0  0  0  0  0  0  0  0
    3.0261    1.4194    0.8123 C   0  0  0  0  0  0  0  0  0  0  0  0
    1.8464    0.7396    0.4323 C   0  0  0  0  0  0  0  0  0  0  0  0
    0.6590    1.3025    0.6660 N   0  0  0  0  0  0  0  0  0  0  0  0
   -0.4223    0.6270    0.2923 C   0  0  0  0  0  0  0  0  0  0  0  0
   -1.7045    1.1629    0.5359 C   0  0  0  0  0  0  0  0  0  0  0  0
   -2.8370    0.4865    0.1727 C   0  0  0  0  0  0  0  0  0  0  0  0
   -4.0981    1.0119    0.3844 N   0  0  0  0  0  0  0  0  0  0  0  0
   -3.7548   -2.2261   -1.4759 H   0  0  0  0  0  0  0  0  0  0  0  0
   -4.6518   -0.8305   -1.1759 H   0  0  0  0  0  0  0  0  0  0  0  0
   -1.3991   -2.2814   -1.2310 H   0  0  0  0  0  0  0  0  0  0  0  0
    3.2984   -2.0608   -0.9009 H   0  0  0  0  0  0  0  0  0  0  0  0
    2.9332    2.3833    1.2859 H   0  0  0  0  0  0  0  0  0  0  0  0
   -1.7667    2.1179    1.0348 H   0  0  0  0  0  0  0  0  0  0  0  0
   -4.1164    1.8185    0.9902 H   0  0  0  0  0  0  0  0  0  0  0  0
   -4.8213    0.3398    0.5912 H   0  0  0  0  0  0  0  0  0  0  0  0
  1  2  1  0  0  0  0
  2  3  2  0  0  0  0
  3  4  1  0  0  0  0
  4  5  2  0  0  0  0
  5  6  1  0  0  0  0
  6  7  2  0  0  0  0
  7  8  1  0  0  0  0
  8  9  1  0  0  0  0
  8 10  2  0  0  0  0
 10 11  1  0  0  0  0
 10 12  1  0  0  0  0
 12 13  2  0  0  0  0
 13 14  1  0  0  0  0
 14 15  2  0  0  0  0
 15 16  1  0  0  0  0
 16 17  2  0  0  0  0
 17 18  1  0  0  0  0
 17  2  1  0  0  0  0
 15  4  1  0  0  0  0
 13  6  1  0  0  0  0
  1 19  1  0  0  0  0
  1 20  1  0  0  0  0
  3 21  1  0  0  0  0
  7 22  1  0  0  0  0
 12 23  1  0  0  0  0
 16 24  1  0  0  0  0
 18 25  1  0  0  0  0
 18 26  1  0  0  0  0
M  END
