
  xtb     03212211203D
 energy: -76.745997550241 gnorm: 0.000218467351 xtb: 6.4.1 (afa7bdf)
 46 48  0     0  0            999 V2000
   -4.6328   -0.5196   -3.4239 C   0  0  0  0  0  0  0  0  0  0  0  0
   -4.4588    0.9875   -3.2275 C   0  0  0  0  0  0  0  0  0  0  0  0
   -4.0660    1.3478   -1.8810 N   0  0  0  0  0  0  0  0  0  0  0  0
   -5.0979    1.8666   -1.0097 C   0  0  0  0  0  0  0  0  0  0  0  0
   -5.8766    0.7820   -0.2630 C   0  0  0  0  0  0  0  0  0  0  0  0
   -2.8254    1.0428   -1.4005 C   0  0  0  0  0  0  0  0  0  0  0  0
   -1.7831    0.6301   -2.2663 C   0  0  0  0  0  0  0  0  0  0  0  0
   -0.5264    0.3577   -1.8002 C   0  0  0  0  0  0  0  0  0  0  0  0
   -0.2154    0.4676   -0.4376 C   0  0  0  0  0  0  0  0  0  0  0  0
    1.0584    0.2017    0.1223 C   0  0  0  0  0  0  0  0  0  0  0  0
    1.2802    0.3240    1.4620 C   0  0  0  0  0  0  0  0  0  0  0  0
    2.5766    0.0500    2.0655 C   0  0  0  0  0  0  0  0  0  0  0  0
    3.0238    0.5798    3.2403 C   0  0  0  0  0  0  0  0  0  0  0  0
    4.6125    0.0768    3.6785 S   0  0  0  0  0  0  0  0  0  0  0  0
    4.7076   -0.8901    2.2598 C   0  0  0  0  0  0  0  0  0  0  0  0
    5.8276   -1.6424    1.9767 N   0  0  0  0  0  0  0  0  0  0  0  0
    6.9211   -1.6459    2.7998 C   0  0  0  0  0  0  0  0  0  0  0  0
    8.0394   -2.5336    2.3237 C   0  0  0  0  0  0  0  0  0  0  0  0
    6.9429   -0.9793    3.8100 O   0  0  0  0  0  0  0  0  0  0  0  0
    3.5667   -0.8169    1.4860 C   0  0  0  0  0  0  0  0  0  0  0  0
    3.4680   -1.5752    0.3149 C   0  0  0  0  0  0  0  0  0  0  0  0
    3.4795   -2.2366   -0.6266 N   0  0  0  0  0  0  0  0  0  0  0  0
    0.1866    0.7495    2.3385 C   0  0  0  0  0  0  0  0  0  0  0  0
    0.2570    0.8956    3.5363 O   0  0  0  0  0  0  0  0  0  0  0  0
   -1.0237    0.9976    1.7579 O   0  0  0  0  0  0  0  0  0  0  0  0
   -1.2449    0.8719    0.4276 C   0  0  0  0  0  0  0  0  0  0  0  0
   -2.5175    1.1508   -0.0379 C   0  0  0  0  0  0  0  0  0  0  0  0
   -5.4227   -0.9013   -2.7830 H   0  0  0  0  0  0  0  0  0  0  0  0
   -3.7146   -1.0483   -3.1826 H   0  0  0  0  0  0  0  0  0  0  0  0
   -4.8951   -0.7280   -4.4580 H   0  0  0  0  0  0  0  0  0  0  0  0
   -3.7237    1.3726   -3.9413 H   0  0  0  0  0  0  0  0  0  0  0  0
   -5.4059    1.4867   -3.4420 H   0  0  0  0  0  0  0  0  0  0  0  0
   -5.7915    2.4503   -1.6217 H   0  0  0  0  0  0  0  0  0  0  0  0
   -4.6411    2.5563   -0.2964 H   0  0  0  0  0  0  0  0  0  0  0  0
   -5.1986    0.1305    0.2818 H   0  0  0  0  0  0  0  0  0  0  0  0
   -6.5630    1.2415    0.4433 H   0  0  0  0  0  0  0  0  0  0  0  0
   -6.4537    0.1764   -0.9568 H   0  0  0  0  0  0  0  0  0  0  0  0
   -1.9618    0.5355   -3.3236 H   0  0  0  0  0  0  0  0  0  0  0  0
    0.2492    0.0472   -2.4843 H   0  0  0  0  0  0  0  0  0  0  0  0
    1.8560   -0.0906   -0.5449 H   0  0  0  0  0  0  0  0  0  0  0  0
    2.4873    1.2490    3.8804 H   0  0  0  0  0  0  0  0  0  0  0  0
    5.8077   -2.2017    1.1341 H   0  0  0  0  0  0  0  0  0  0  0  0
    7.7007   -3.5668    2.2795 H   0  0  0  0  0  0  0  0  0  0  0  0
    8.3626   -2.2304    1.3301 H   0  0  0  0  0  0  0  0  0  0  0  0
    8.8746   -2.4591    3.0135 H   0  0  0  0  0  0  0  0  0  0  0  0
   -3.2466    1.4398    0.6984 H   0  0  0  0  0  0  0  0  0  0  0  0
  1  2  1  0  0  0  0
  2  3  1  0  0  0  0
  3  4  1  0  0  0  0
  4  5  1  0  0  0  0
  3  6  1  0  0  0  0
  6  7  2  0  0  0  0
  7  8  1  0  0  0  0
  8  9  2  0  0  0  0
  9 10  1  0  0  0  0
 10 11  2  0  0  0  0
 11 12  1  0  0  0  0
 12 13  2  0  0  0  0
 13 14  1  0  0  0  0
 14 15  1  0  0  0  0
 15 16  1  0  0  0  0
 16 17  1  0  0  0  0
 17 18  1  0  0  0  0
 17 19  2  0  0  0  0
 15 20  2  0  0  0  0
 20 21  1  0  0  0  0
 21 22  3  0  0  0  0
 11 23  1  0  0  0  0
 23 24  2  0  0  0  0
 23 25  1  0  0  0  0
 25 26  1  0  0  0  0
 26 27  2  0  0  0  0
 27  6  1  0  0  0  0
 26  9  1  0  0  0  0
 20 12  1  0  0  0  0
  1 28  1  0  0  0  0
  1 29  1  0  0  0  0
  1 30  1  0  0  0  0
  2 31  1  0  0  0  0
  2 32  1  0  0  0  0
  4 33  1  0  0  0  0
  4 34  1  0  0  0  0
  5 35  1  0  0  0  0
  5 36  1  0  0  0  0
  5 37  1  0  0  0  0
  7 38  1  0  0  0  0
  8 39  1  0  0  0  0
 10 40  1  0  0  0  0
 13 41  1  0  0  0  0
 16 42  1  0  0  0  0
 18 43  1  0  0  0  0
 18 44  1  0  0  0  0
 18 45  1  0  0  0  0
 27 46  1  0  0  0  0
M  END
