
  xtb     03212211233D
 energy: -76.263260558373 gnorm: 0.000209165388 xtb: 6.4.1 (afa7bdf)
 45 48  0     0  0            999 V2000
   -5.0890   -2.0183   -2.8308 C   0  0  0  0  0  0  0  0  0  0  0  0
   -5.2864   -1.1305   -1.7591 O   0  0  0  0  0  0  0  0  0  0  0  0
   -4.1923   -0.6207   -1.1307 C   0  0  0  0  0  0  0  0  0  0  0  0
   -2.8850   -0.9253   -1.4584 C   0  0  0  0  0  0  0  0  0  0  0  0
   -1.8382   -0.3515   -0.7372 C   0  0  0  0  0  0  0  0  0  0  0  0
   -0.4678   -0.6707   -1.0571 C   0  0  0  0  0  0  0  0  0  0  0  0
    0.1106   -1.4813   -2.0073 C   0  0  0  0  0  0  0  0  0  0  0  0
    1.4560   -1.4346   -1.8761 N   0  0  0  0  0  0  0  0  0  0  0  0
    1.6809   -0.6214   -0.8788 C   0  0  0  0  0  0  0  0  0  0  0  0
    2.9712   -0.2522   -0.3534 C   0  0  0  0  0  0  0  0  0  0  0  0
    3.0821    0.6513    0.7337 C   0  0  0  0  0  0  0  0  0  0  0  0
    4.2105    1.0224    1.2565 N   0  0  0  0  0  0  0  0  0  0  0  0
    5.3595    0.5278    0.7472 C   0  0  0  0  0  0  0  0  0  0  0  0
    6.5823    0.9314    1.3185 C   0  0  0  0  0  0  0  0  0  0  0  0
    7.7640    0.4490    0.8272 C   0  0  0  0  0  0  0  0  0  0  0  0
    7.7768   -0.4524   -0.2503 C   0  0  0  0  0  0  0  0  0  0  0  0
    6.6072   -0.8627   -0.8263 C   0  0  0  0  0  0  0  0  0  0  0  0
    5.3698   -0.3859   -0.3454 C   0  0  0  0  0  0  0  0  0  0  0  0
    4.1325   -0.7686   -0.8905 C   0  0  0  0  0  0  0  0  0  0  0  0
    0.5475   -0.1238   -0.3397 O   0  0  0  0  0  0  0  0  0  0  0  0
   -2.1191    0.5356    0.2967 C   0  0  0  0  0  0  0  0  0  0  0  0
   -3.4267    0.8623    0.6299 C   0  0  0  0  0  0  0  0  0  0  0  0
   -3.7361    1.7554    1.6249 O   0  0  0  0  0  0  0  0  0  0  0  0
   -2.6878    2.3389    2.3583 C   0  0  0  0  0  0  0  0  0  0  0  0
   -4.4869    0.2722   -0.0754 C   0  0  0  0  0  0  0  0  0  0  0  0
   -5.8185    0.4751    0.1127 O   0  0  0  0  0  0  0  0  0  0  0  0
   -6.3068    1.0489    1.3035 C   0  0  0  0  0  0  0  0  0  0  0  0
   -6.0867   -2.2843   -3.1761 H   0  0  0  0  0  0  0  0  0  0  0  0
   -4.5371   -1.5463   -3.6504 H   0  0  0  0  0  0  0  0  0  0  0  0
   -4.5630   -2.9251   -2.5137 H   0  0  0  0  0  0  0  0  0  0  0  0
   -2.6593   -1.6081   -2.2586 H   0  0  0  0  0  0  0  0  0  0  0  0
   -0.3471   -2.0838   -2.7637 H   0  0  0  0  0  0  0  0  0  0  0  0
    2.1872    1.0725    1.1737 H   0  0  0  0  0  0  0  0  0  0  0  0
    6.5508    1.6239    2.1450 H   0  0  0  0  0  0  0  0  0  0  0  0
    8.7013    0.7585    1.2659 H   0  0  0  0  0  0  0  0  0  0  0  0
    8.7229   -0.8194   -0.6202 H   0  0  0  0  0  0  0  0  0  0  0  0
    6.6082   -1.5558   -1.6553 H   0  0  0  0  0  0  0  0  0  0  0  0
    4.0813   -1.4589   -1.7191 H   0  0  0  0  0  0  0  0  0  0  0  0
   -1.2929    0.9730    0.8308 H   0  0  0  0  0  0  0  0  0  0  0  0
   -2.0952    1.5861    2.8877 H   0  0  0  0  0  0  0  0  0  0  0  0
   -2.0317    2.9383    1.7194 H   0  0  0  0  0  0  0  0  0  0  0  0
   -3.1725    2.9897    3.0849 H   0  0  0  0  0  0  0  0  0  0  0  0
   -6.0733    2.1135    1.3690 H   0  0  0  0  0  0  0  0  0  0  0  0
   -5.9158    0.5397    2.1873 H   0  0  0  0  0  0  0  0  0  0  0  0
   -7.3878    0.9157    1.2574 H   0  0  0  0  0  0  0  0  0  0  0  0
  1  2  1  0  0  0  0
  2  3  1  0  0  0  0
  3  4  2  0  0  0  0
  4  5  1  0  0  0  0
  5  6  1  0  0  0  0
  6  7  2  0  0  0  0
  7  8  1  0  0  0  0
  8  9  2  0  0  0  0
  9 10  1  0  0  0  0
 10 11  2  0  0  0  0
 11 12  1  0  0  0  0
 12 13  2  0  0  0  0
 13 14  1  0  0  0  0
 14 15  2  0  0  0  0
 15 16  1  0  0  0  0
 16 17  2  0  0  0  0
 17 18  1  0  0  0  0
 18 19  2  0  0  0  0
  9 20  1  0  0  0  0
  5 21  2  0  0  0  0
 21 22  1  0  0  0  0
 22 23  1  0  0  0  0
 23 24  1  0  0  0  0
 22 25  2  0  0  0  0
 25 26  1  0  0  0  0
 26 27  1  0  0  0  0
 25  3  1  0  0  0  0
 20  6  1  0  0  0  0
 19 10  1  0  0  0  0
 18 13  1  0  0  0  0
  1 28  1  0  0  0  0
  1 29  1  0  0  0  0
  1 30  1  0  0  0  0
  4 31  1  0  0  0  0
  7 32  1  0  0  0  0
 11 33  1  0  0  0  0
 14 34  1  0  0  0  0
 15 35  1  0  0  0  0
 16 36  1  0  0  0  0
 17 37  1  0  0  0  0
 19 38  1  0  0  0  0
 21 39  1  0  0  0  0
 24 40  1  0  0  0  0
 24 41  1  0  0  0  0
 24 42  1  0  0  0  0
 27 43  1  0  0  0  0
 27 44  1  0  0  0  0
 27 45  1  0  0  0  0
M  END
