
  xtb     03212211023D
 energy: -75.206351430200 gnorm: 0.000074828434 xtb: 6.4.1 (afa7bdf)
 51 55  0     0  0            999 V2000
    2.8003   -1.2133   -3.5636 C   0  0  0  0  0  0  0  0  0  0  0  0
    2.2277   -0.8399   -2.3362 O   0  0  0  0  0  0  0  0  0  0  0  0
    3.0480   -0.5223   -1.2918 C   0  0  0  0  0  0  0  0  0  0  0  0
    4.4510   -0.5041   -1.3801 C   0  0  0  0  0  0  0  0  0  0  0  0
    5.2085   -0.1404   -0.3015 C   0  0  0  0  0  0  0  0  0  0  0  0
    4.6120    0.1917    0.9282 C   0  0  0  0  0  0  0  0  0  0  0  0
    5.3807    0.5459    2.0568 C   0  0  0  0  0  0  0  0  0  0  0  0
    4.7822    0.8287    3.2511 C   0  0  0  0  0  0  0  0  0  0  0  0
    3.3859    0.7464    3.3718 C   0  0  0  0  0  0  0  0  0  0  0  0
    2.6134    0.4162    2.2946 C   0  0  0  0  0  0  0  0  0  0  0  0
    3.1959    0.1555    1.0339 C   0  0  0  0  0  0  0  0  0  0  0  0
    2.4189   -0.1748   -0.1028 C   0  0  0  0  0  0  0  0  0  0  0  0
    0.9543   -0.1334   -0.0648 C   0  0  0  0  0  0  0  0  0  0  0  0
    0.0878   -1.1502   -0.2169 C   0  0  0  0  0  0  0  0  0  0  0  0
   -1.2733   -0.6613   -0.1512 C   0  0  0  0  0  0  0  0  0  0  0  0
   -2.4282   -1.5546   -0.2139 C   0  0  0  0  0  0  0  0  0  0  0  0
   -3.4905   -1.4223    0.6789 C   0  0  0  0  0  0  0  0  0  0  0  0
   -4.5676   -2.2851    0.6185 C   0  0  0  0  0  0  0  0  0  0  0  0
   -4.6021   -3.2937   -0.3312 C   0  0  0  0  0  0  0  0  0  0  0  0
   -3.5481   -3.4383   -1.2175 C   0  0  0  0  0  0  0  0  0  0  0  0
   -2.4661   -2.5799   -1.1565 C   0  0  0  0  0  0  0  0  0  0  0  0
   -1.2507    0.6897    0.0197 C   0  0  0  0  0  0  0  0  0  0  0  0
   -2.3641    1.6216    0.0628 C   0  0  0  0  0  0  0  0  0  0  0  0
   -3.5117    1.4048   -0.7047 C   0  0  0  0  0  0  0  0  0  0  0  0
   -4.5659    2.2951   -0.6665 C   0  0  0  0  0  0  0  0  0  0  0  0
   -4.4999    3.4251    0.1331 C   0  0  0  0  0  0  0  0  0  0  0  0
   -3.3634    3.6608    0.8880 C   0  0  0  0  0  0  0  0  0  0  0  0
   -2.3052    2.7731    0.8509 C   0  0  0  0  0  0  0  0  0  0  0  0
    0.1793    1.1434    0.0830 C   0  0  0  0  0  0  0  0  0  0  0  0
    3.4222   -2.1095   -3.4658 H   0  0  0  0  0  0  0  0  0  0  0  0
    1.9603   -1.4317   -4.2217 H   0  0  0  0  0  0  0  0  0  0  0  0
    3.3950   -0.4031   -3.9991 H   0  0  0  0  0  0  0  0  0  0  0  0
    4.9395   -0.7645   -2.3061 H   0  0  0  0  0  0  0  0  0  0  0  0
    6.2855   -0.1125   -0.3842 H   0  0  0  0  0  0  0  0  0  0  0  0
    6.4565    0.5814    1.9573 H   0  0  0  0  0  0  0  0  0  0  0  0
    5.3758    1.1001    4.1117 H   0  0  0  0  0  0  0  0  0  0  0  0
    2.9258    0.9399    4.3300 H   0  0  0  0  0  0  0  0  0  0  0  0
    1.5438    0.3219    2.4049 H   0  0  0  0  0  0  0  0  0  0  0  0
    0.3418   -2.1882   -0.3347 H   0  0  0  0  0  0  0  0  0  0  0  0
   -3.4620   -0.6391    1.4224 H   0  0  0  0  0  0  0  0  0  0  0  0
   -5.3848   -2.1730    1.3164 H   0  0  0  0  0  0  0  0  0  0  0  0
   -5.4466   -3.9656   -0.3785 H   0  0  0  0  0  0  0  0  0  0  0  0
   -3.5698   -4.2242   -1.9592 H   0  0  0  0  0  0  0  0  0  0  0  0
   -1.6486   -2.6869   -1.8550 H   0  0  0  0  0  0  0  0  0  0  0  0
   -3.5630    0.5358   -1.3432 H   0  0  0  0  0  0  0  0  0  0  0  0
   -5.4445    2.1100   -1.2676 H   0  0  0  0  0  0  0  0  0  0  0  0
   -5.3269    4.1191    0.1642 H   0  0  0  0  0  0  0  0  0  0  0  0
   -3.3020    4.5416    1.5112 H   0  0  0  0  0  0  0  0  0  0  0  0
   -1.4309    2.9649    1.4557 H   0  0  0  0  0  0  0  0  0  0  0  0
    0.4084    1.8280   -0.7376 H   0  0  0  0  0  0  0  0  0  0  0  0
    0.4150    1.6713    1.0071 H   0  0  0  0  0  0  0  0  0  0  0  0
  1  2  1  0  0  0  0
  2  3  1  0  0  0  0
  3  4  2  0  0  0  0
  4  5  1  0  0  0  0
  5  6  2  0  0  0  0
  6  7  1  0  0  0  0
  7  8  2  0  0  0  0
  8  9  1  0  0  0  0
  9 10  2  0  0  0  0
 10 11  1  0  0  0  0
 11 12  2  0  0  0  0
 12 13  1  0  0  0  0
 13 14  2  0  0  0  0
 14 15  1  0  0  0  0
 15 16  1  0  0  0  0
 16 17  2  0  0  0  0
 17 18  1  0  0  0  0
 18 19  2  0  0  0  0
 19 20  1  0  0  0  0
 20 21  2  0  0  0  0
 15 22  2  0  0  0  0
 22 23  1  0  0  0  0
 23 24  2  0  0  0  0
 24 25  1  0  0  0  0
 25 26  2  0  0  0  0
 26 27  1  0  0  0  0
 27 28  2  0  0  0  0
 22 29  1  0  0  0  0
 12  3  1  0  0  0  0
 29 13  1  0  0  0  0
 11  6  1  0  0  0  0
 21 16  1  0  0  0  0
 28 23  1  0  0  0  0
  1 30  1  0  0  0  0
  1 31  1  0  0  0  0
  1 32  1  0  0  0  0
  4 33  1  0  0  0  0
  5 34  1  0  0  0  0
  7 35  1  0  0  0  0
  8 36  1  0  0  0  0
  9 37  1  0  0  0  0
 10 38  1  0  0  0  0
 14 39  1  0  0  0  0
 17 40  1  0  0  0  0
 18 41  1  0  0  0  0
 19 42  1  0  0  0  0
 20 43  1  0  0  0  0
 21 44  1  0  0  0  0
 24 45  1  0  0  0  0
 25 46  1  0  0  0  0
 26 47  1  0  0  0  0
 27 48  1  0  0  0  0
 28 49  1  0  0  0  0
 29 50  1  0  0  0  0
 29 51  1  0  0  0  0
M  END
