
  xtb     03212211333D
 energy: -73.386803837579 gnorm: 0.000213210585 xtb: 6.4.1 (afa7bdf)
 42 46  0     0  0            999 V2000
    7.1141   -0.8288    0.0046 O   0  0  0  0  0  0  0  0  0  0  0  0
    5.8060   -0.4830    0.0957 C   0  0  0  0  0  0  0  0  0  0  0  0
    4.9684   -0.7607   -0.9822 C   0  0  0  0  0  0  0  0  0  0  0  0
    3.6323   -0.4323   -0.9290 C   0  0  0  0  0  0  0  0  0  0  0  0
    3.0945    0.1917    0.1998 C   0  0  0  0  0  0  0  0  0  0  0  0
    1.7004    0.5762    0.3026 C   0  0  0  0  0  0  0  0  0  0  0  0
    0.6455   -0.1115   -0.1630 N   0  0  0  0  0  4  0  0  0  0  0  0
   -0.5045    0.5806    0.1620 C   0  0  0  0  0  0  0  0  0  0  0  0
   -1.7833    0.0737   -0.0639 C   0  0  0  0  0  0  0  0  0  0  0  0
   -2.9600    0.8790    0.2820 C   0  0  0  0  0  0  0  0  0  0  0  0
   -3.9512    0.3669    1.1164 C   0  0  0  0  0  0  0  0  0  0  0  0
   -5.0559    1.1330    1.4390 C   0  0  0  0  0  0  0  0  0  0  0  0
   -5.1911    2.4127    0.9260 C   0  0  0  0  0  0  0  0  0  0  0  0
   -4.2113    2.9276    0.0930 C   0  0  0  0  0  0  0  0  0  0  0  0
   -3.0989    2.1702   -0.2234 C   0  0  0  0  0  0  0  0  0  0  0  0
   -1.9373   -1.2173   -0.5804 C   0  0  0  0  0  0  0  0  0  0  0  0
   -3.0923   -1.9761   -0.8695 C   0  0  0  0  0  0  0  0  0  0  0  0
   -2.6586   -3.1997   -1.3381 C   0  0  0  0  0  0  0  0  0  0  0  0
   -1.2626   -3.1619   -1.3408 C   0  0  0  0  0  0  0  0  0  0  0  0
   -0.8383   -1.9837   -0.8896 N   0  0  0  0  0  0  0  0  0  0  0  0
    0.6160   -1.4673   -0.9161 B   0  0  0  0  0  4  0  0  0  0  0  0
    0.9718   -1.2801   -2.2443 F   0  0  0  0  0  0  0  0  0  0  0  0
    1.4561   -2.3781   -0.3203 F   0  0  0  0  0  0  0  0  0  0  0  0
   -0.1301    1.7606    0.8504 C   0  0  0  0  0  0  0  0  0  0  0  0
    1.2357    1.7480    0.9475 C   0  0  0  0  0  0  0  0  0  0  0  0
    3.9472    0.4832    1.2686 C   0  0  0  0  0  0  0  0  0  0  0  0
    5.2824    0.1435    1.2230 C   0  0  0  0  0  0  0  0  0  0  0  0
    7.5765   -0.5959    0.8190 H   0  0  0  0  0  0  0  0  0  0  0  0
    5.3880   -1.2389   -1.8525 H   0  0  0  0  0  0  0  0  0  0  0  0
    3.0055   -0.6442   -1.7766 H   0  0  0  0  0  0  0  0  0  0  0  0
   -3.8349   -0.6232    1.5311 H   0  0  0  0  0  0  0  0  0  0  0  0
   -5.8145    0.7302    2.0937 H   0  0  0  0  0  0  0  0  0  0  0  0
   -6.0572    3.0072    1.1755 H   0  0  0  0  0  0  0  0  0  0  0  0
   -4.3141    3.9237   -0.3113 H   0  0  0  0  0  0  0  0  0  0  0  0
   -2.3411    2.5636   -0.8845 H   0  0  0  0  0  0  0  0  0  0  0  0
   -4.1048   -1.6438   -0.7516 H   0  0  0  0  0  0  0  0  0  0  0  0
   -3.2643   -4.0280   -1.6485 H   0  0  0  0  0  0  0  0  0  0  0  0
   -0.5631   -3.9163   -1.6450 H   0  0  0  0  0  0  0  0  0  0  0  0
   -0.8091    2.4952    1.2368 H   0  0  0  0  0  0  0  0  0  0  0  0
    1.8613    2.4930    1.3983 H   0  0  0  0  0  0  0  0  0  0  0  0
    3.5506    0.9508    2.1572 H   0  0  0  0  0  0  0  0  0  0  0  0
    5.9264    0.3595    2.0660 H   0  0  0  0  0  0  0  0  0  0  0  0
  1  2  1  0  0  0  0
  2  3  2  0  0  0  0
  3  4  1  0  0  0  0
  4  5  2  0  0  0  0
  5  6  1  0  0  0  0
  6  7  2  0  0  0  0
  7  8  1  0  0  0  0
  8  9  2  0  0  0  0
  9 10  1  0  0  0  0
 10 11  2  0  0  0  0
 11 12  1  0  0  0  0
 12 13  2  0  0  0  0
 13 14  1  0  0  0  0
 14 15  2  0  0  0  0
  9 16  1  0  0  0  0
 16 17  2  0  0  0  0
 17 18  1  0  0  0  0
 18 19  2  0  0  0  0
 19 20  1  0  0  0  0
 20 21  1  0  0  0  0
 21 22  1  0  0  0  0
 21 23  1  0  0  0  0
  8 24  1  0  0  0  0
 24 25  2  0  0  0  0
  5 26  1  0  0  0  0
 26 27  2  0  0  0  0
 27  2  1  0  0  0  0
 25  6  1  0  0  0  0
 21  7  1  0  0  0  0
 15 10  1  0  0  0  0
 20 16  1  0  0  0  0
  1 28  1  0  0  0  0
  3 29  1  0  0  0  0
  4 30  1  0  0  0  0
 11 31  1  0  0  0  0
 12 32  1  0  0  0  0
 13 33  1  0  0  0  0
 14 34  1  0  0  0  0
 15 35  1  0  0  0  0
 17 36  1  0  0  0  0
 18 37  1  0  0  0  0
 19 38  1  0  0  0  0
 24 39  1  0  0  0  0
 25 40  1  0  0  0  0
 26 41  1  0  0  0  0
 27 42  1  0  0  0  0
M  CHG  1   7   1
M  CHG  1  21  -1
M  END
