
  xtb     03212210583D
 energy: -127.481796593581 gnorm: 0.000417991749 xtb: 6.4.1 (afa7bdf)
 74 80  0     0  0            999 V2000
   10.9929    1.5563    0.6979 O   0  0  0  0  0  0  0  0  0  0  0  0
    9.9279    1.4634    0.1507 C   0  0  0  0  0  0  0  0  0  0  0  0
    9.0132    2.4288    0.1503 O   0  0  0  0  0  0  0  0  0  0  0  0
    9.4894    0.2402   -0.6469 C   0  0  0  0  0  0  0  0  0  0  0  0
    8.1092    0.1439   -0.8550 O   0  0  0  0  0  0  0  0  0  0  0  0
    7.2959   -0.0333    0.2324 C   0  0  0  0  0  0  0  0  0  0  0  0
    7.7357   -0.1552    1.5444 C   0  0  0  0  0  0  0  0  0  0  0  0
    6.8079   -0.3373    2.5586 C   0  0  0  0  0  0  0  0  0  0  0  0
    5.4571   -0.4002    2.2838 C   0  0  0  0  0  0  0  0  0  0  0  0
    5.0079   -0.2768    0.9697 C   0  0  0  0  0  0  0  0  0  0  0  0
    3.5651   -0.3256    0.6646 C   0  0  0  0  0  0  0  0  0  0  0  0
    2.8439   -1.4796    1.0010 C   0  0  0  0  0  0  0  0  0  0  0  0
    1.5152   -1.6480    0.8225 N   0  0  0  0  0  0  0  0  0  0  0  0
    1.2333   -2.8960    1.2561 C   0  0  0  0  0  0  0  0  0  0  0  0
   -0.0111   -3.5163    1.2827 C   0  0  0  0  0  0  0  0  0  0  0  0
   -1.2299   -3.0169    0.8607 C   0  0  0  0  0  0  0  0  0  0  0  0
   -2.4841   -3.6858    0.9214 C   0  0  0  0  0  0  0  0  0  0  0  0
   -3.4313   -2.8508    0.4043 C   0  0  0  0  0  0  0  0  0  0  0  0
   -2.7788   -1.6507    0.0081 C   0  0  0  0  0  0  0  0  0  0  0  0
   -1.4623   -1.7919    0.3033 N   0  0  0  0  0  0  0  0  0  0  0  0
   -3.3699   -0.5218   -0.5736 C   0  0  0  0  0  0  0  0  0  0  0  0
   -4.8313   -0.5825   -0.8247 C   0  0  0  0  0  0  0  0  0  0  0  0
   -5.3352   -1.3896   -1.8417 C   0  0  0  0  0  0  0  0  0  0  0  0
   -6.6957   -1.4411   -2.0690 C   0  0  0  0  0  0  0  0  0  0  0  0
   -7.5772   -0.6998   -1.2973 C   0  0  0  0  0  0  0  0  0  0  0  0
   -7.0818    0.1045   -0.2786 C   0  0  0  0  0  0  0  0  0  0  0  0
   -7.8420    0.8784    0.5527 O   0  0  0  0  0  0  0  0  0  0  0  0
   -9.2320    0.8810    0.3803 C   0  0  0  0  0  0  0  0  0  0  0  0
   -9.8777    1.8536    1.3541 C   0  0  0  0  0  0  0  0  0  0  0  0
  -11.0501    1.8427    1.6142 O   0  0  0  0  0  0  0  0  0  0  0  0
   -9.0200    2.7275    1.8615 O   0  0  0  0  0  0  0  0  0  0  0  0
   -5.7083    0.1551   -0.0483 C   0  0  0  0  0  0  0  0  0  0  0  0
   -2.6823    0.6196   -0.9508 C   0  0  0  0  0  0  0  0  0  0  0  0
   -1.3698    0.8181   -0.8069 N   0  0  0  0  0  0  0  0  0  0  0  0
   -1.0410    2.0103   -1.3075 C   0  0  0  0  0  0  0  0  0  0  0  0
    0.2085    2.5900   -1.3248 C   0  0  0  0  0  0  0  0  0  0  0  0
    1.4216    2.0960   -0.8479 C   0  0  0  0  0  0  0  0  0  0  0  0
    2.6544    2.8080   -0.8685 C   0  0  0  0  0  0  0  0  0  0  0  0
    3.6126    2.0131   -0.3105 C   0  0  0  0  0  0  0  0  0  0  0  0
    2.9916    0.7874    0.0547 C   0  0  0  0  0  0  0  0  0  0  0  0
    1.6712    0.8894   -0.2840 N   0  0  0  0  0  0  0  0  0  0  0  0
   -2.2334    2.7482   -1.8943 C   0  0  0  0  0  0  0  0  0  0  0  0
   -3.3850    1.7854   -1.6242 C   0  0  0  0  0  0  0  0  0  0  0  0
    2.4359   -3.5590    1.7196 C   0  0  0  0  0  0  0  0  0  0  0  0
    3.4432   -2.6768    1.5582 C   0  0  0  0  0  0  0  0  0  0  0  0
    5.9330   -0.0942   -0.0465 C   0  0  0  0  0  0  0  0  0  0  0  0
    9.3243    3.1990    0.6520 H   0  0  0  0  0  0  0  0  0  0  0  0
    9.9049   -0.6565   -0.1670 H   0  0  0  0  0  0  0  0  0  0  0  0
    9.9305    0.3281   -1.6460 H   0  0  0  0  0  0  0  0  0  0  0  0
    8.7847   -0.1071    1.7940 H   0  0  0  0  0  0  0  0  0  0  0  0
    7.1545   -0.4285    3.5775 H   0  0  0  0  0  0  0  0  0  0  0  0
    4.7419   -0.5301    3.0817 H   0  0  0  0  0  0  0  0  0  0  0  0
   -0.0288   -4.5196    1.6867 H   0  0  0  0  0  0  0  0  0  0  0  0
   -2.6302   -4.6736    1.3136 H   0  0  0  0  0  0  0  0  0  0  0  0
   -4.4827   -3.0371    0.3043 H   0  0  0  0  0  0  0  0  0  0  0  0
   -0.7653   -1.0797    0.1325 H   0  0  0  0  0  0  0  0  0  0  0  0
   -4.6555   -1.9698   -2.4473 H   0  0  0  0  0  0  0  0  0  0  0  0
   -7.0863   -2.0671   -2.8577 H   0  0  0  0  0  0  0  0  0  0  0  0
   -8.6349   -0.7642   -1.4985 H   0  0  0  0  0  0  0  0  0  0  0  0
   -9.6714   -0.1117    0.5531 H   0  0  0  0  0  0  0  0  0  0  0  0
   -9.5130    1.2095   -0.6330 H   0  0  0  0  0  0  0  0  0  0  0  0
   -9.4691    3.3297    2.4770 H   0  0  0  0  0  0  0  0  0  0  0  0
   -5.3475    0.7735    0.7587 H   0  0  0  0  0  0  0  0  0  0  0  0
    0.2621    3.5780   -1.7624 H   0  0  0  0  0  0  0  0  0  0  0  0
    2.7769    3.8010   -1.2557 H   0  0  0  0  0  0  0  0  0  0  0  0
    4.6475    2.2488   -0.1588 H   0  0  0  0  0  0  0  0  0  0  0  0
    1.0180    0.1356   -0.1017 H   0  0  0  0  0  0  0  0  0  0  0  0
   -2.3653    3.7133   -1.4038 H   0  0  0  0  0  0  0  0  0  0  0  0
   -2.0775    2.9296   -2.9588 H   0  0  0  0  0  0  0  0  0  0  0  0
   -3.8869    1.4510   -2.5334 H   0  0  0  0  0  0  0  0  0  0  0  0
   -4.1412    2.2119   -0.9655 H   0  0  0  0  0  0  0  0  0  0  0  0
    2.4733   -4.5609    2.1031 H   0  0  0  0  0  0  0  0  0  0  0  0
    4.4871   -2.8053    1.7684 H   0  0  0  0  0  0  0  0  0  0  0  0
    5.6138   -0.0096   -1.0733 H   0  0  0  0  0  0  0  0  0  0  0  0
  1  2  2  0  0  0  0
  2  3  1  0  0  0  0
  2  4  1  0  0  0  0
  4  5  1  0  0  0  0
  5  6  1  0  0  0  0
  6  7  2  0  0  0  0
  7  8  1  0  0  0  0
  8  9  2  0  0  0  0
  9 10  1  0  0  0  0
 10 11  1  0  0  0  0
 11 12  1  0  0  0  0
 12 13  2  0  0  0  0
 13 14  1  0  0  0  0
 14 15  2  0  0  0  0
 15 16  1  0  0  0  0
 16 17  2  0  0  0  0
 17 18  1  0  0  0  0
 18 19  2  0  0  0  0
 19 20  1  0  0  0  0
 19 21  1  0  0  0  0
 21 22  1  0  0  0  0
 22 23  2  0  0  0  0
 23 24  1  0  0  0  0
 24 25  2  0  0  0  0
 25 26  1  0  0  0  0
 26 27  1  0  0  0  0
 27 28  1  0  0  0  0
 28 29  1  0  0  0  0
 29 30  2  0  0  0  0
 29 31  1  0  0  0  0
 26 32  2  0  0  0  0
 21 33  2  0  0  0  0
 33 34  1  0  0  0  0
 34 35  2  0  0  0  0
 35 36  1  0  0  0  0
 36 37  2  0  0  0  0
 37 38  1  0  0  0  0
 38 39  2  0  0  0  0
 39 40  1  0  0  0  0
 40 41  1  0  0  0  0
 35 42  1  0  0  0  0
 42 43  1  0  0  0  0
 14 44  1  0  0  0  0
 44 45  2  0  0  0  0
 10 46  2  0  0  0  0
 46  6  1  0  0  0  0
 40 11  2  0  0  0  0
 45 12  1  0  0  0  0
 20 16  1  0  0  0  0
 32 22  1  0  0  0  0
 43 33  1  0  0  0  0
 41 37  1  0  0  0  0
  3 47  1  0  0  0  0
  4 48  1  0  0  0  0
  4 49  1  0  0  0  0
  7 50  1  0  0  0  0
  8 51  1  0  0  0  0
  9 52  1  0  0  0  0
 15 53  1  0  0  0  0
 17 54  1  0  0  0  0
 18 55  1  0  0  0  0
 20 56  1  0  0  0  0
 23 57  1  0  0  0  0
 24 58  1  0  0  0  0
 25 59  1  0  0  0  0
 28 60  1  0  0  0  0
 28 61  1  0  0  0  0
 31 62  1  0  0  0  0
 32 63  1  0  0  0  0
 36 64  1  0  0  0  0
 38 65  1  0  0  0  0
 39 66  1  0  0  0  0
 41 67  1  0  0  0  0
 42 68  1  0  0  0  0
 42 69  1  0  0  0  0
 43 70  1  0  0  0  0
 43 71  1  0  0  0  0
 44 72  1  0  0  0  0
 45 73  1  0  0  0  0
 46 74  1  0  0  0  0
M  END
