
  xtb     03212212133D
 energy: -43.495001502615 gnorm: 0.000200653064 xtb: 6.4.1 (afa7bdf)
 25 27  0     0  0            999 V2000
    3.8261   -1.0429   -0.4507 C   0  0  0  0  0  0  0  0  0  0  0  0
    2.6586   -0.1829   -0.1253 C   0  0  0  0  0  0  0  0  0  0  0  0
    1.4628   -0.6395   -0.2520 N   0  0  0  0  0  0  0  0  0  0  0  0
    0.4043    0.1723    0.0523 C   0  0  0  0  0  0  0  0  0  0  0  0
    0.6139    1.4753    0.4922 C   0  0  0  0  0  0  0  0  0  0  0  0
   -0.4644    2.3229    0.8051 C   0  0  0  0  0  0  0  0  0  0  0  0
   -1.7406    1.8601    0.6744 C   0  0  0  0  0  0  0  0  0  0  0  0
   -2.0065    0.5418    0.2311 C   0  0  0  0  0  0  0  0  0  0  0  0
   -3.3209    0.0547    0.0928 C   0  0  0  0  0  0  0  0  0  0  0  0
   -3.5504   -1.2249   -0.3368 C   0  0  0  0  0  0  0  0  0  0  0  0
   -2.4776   -2.0715   -0.6459 C   0  0  0  0  0  0  0  0  0  0  0  0
   -1.1873   -1.6283   -0.5229 C   0  0  0  0  0  0  0  0  0  0  0  0
   -0.9268   -0.3195   -0.0848 C   0  0  0  0  0  0  0  0  0  0  0  0
    1.8714    1.9658    0.6311 O   0  0  0  0  0  0  0  0  0  0  0  0
    2.9548    1.1892    0.3391 C   0  0  0  0  0  0  0  0  0  0  0  0
    4.0610    1.6503    0.4710 O   0  0  0  0  0  0  0  0  0  0  0  0
    3.4884   -2.0124   -0.8030 H   0  0  0  0  0  0  0  0  0  0  0  0
    4.4496   -1.1612    0.4342 H   0  0  0  0  0  0  0  0  0  0  0  0
    4.4374   -0.5563   -1.2090 H   0  0  0  0  0  0  0  0  0  0  0  0
   -0.2481    3.3242    1.1420 H   0  0  0  0  0  0  0  0  0  0  0  0
   -2.5757    2.5029    0.9110 H   0  0  0  0  0  0  0  0  0  0  0  0
   -4.1454    0.7105    0.3323 H   0  0  0  0  0  0  0  0  0  0  0  0
   -4.5617   -1.5894   -0.4400 H   0  0  0  0  0  0  0  0  0  0  0  0
   -2.6763   -3.0781   -0.9825 H   0  0  0  0  0  0  0  0  0  0  0  0
   -0.3468   -2.2627   -0.7555 H   0  0  0  0  0  0  0  0  0  0  0  0
  1  2  1  0  0  0  0
  2  3  2  0  0  0  0
  3  4  1  0  0  0  0
  4  5  2  0  0  0  0
  5  6  1  0  0  0  0
  6  7  2  0  0  0  0
  7  8  1  0  0  0  0
  8  9  2  0  0  0  0
  9 10  1  0  0  0  0
 10 11  2  0  0  0  0
 11 12  1  0  0  0  0
 12 13  2  0  0  0  0
  5 14  1  0  0  0  0
 14 15  1  0  0  0  0
 15 16  2  0  0  0  0
 15  2  1  0  0  0  0
 13  4  1  0  0  0  0
 13  8  1  0  0  0  0
  1 17  1  0  0  0  0
  1 18  1  0  0  0  0
  1 19  1  0  0  0  0
  6 20  1  0  0  0  0
  7 21  1  0  0  0  0
  9 22  1  0  0  0  0
 10 23  1  0  0  0  0
 11 24  1  0  0  0  0
 12 25  1  0  0  0  0
M  END
