
  xtb     03212211063D
 energy: -81.287052991534 gnorm: 0.000208287151 xtb: 6.4.1 (afa7bdf)
 51 52  0     0  0            999 V2000
   -7.4680    1.3126    0.7751 C   0  0  0  0  0  0  0  0  0  0  0  0
   -6.2000    1.0099    0.2066 O   0  0  0  0  0  0  0  0  0  0  0  0
   -5.5060    0.0298    0.7941 C   0  0  0  0  0  0  0  0  0  0  0  0
   -5.8948   -0.5808    1.7534 O   0  0  0  0  0  0  0  0  0  0  0  0
   -4.1987   -0.2102    0.0710 C   0  0  0  0  0  0  0  0  0  0  0  0
   -3.1775   -0.8793    0.9837 C   0  0  0  0  0  0  0  0  0  0  0  0
   -1.9583   -1.4250    0.2112 C   0  0  0  0  0  0  0  0  0  0  0  0
   -0.8512   -1.6765    1.1042 N   0  0  0  0  0  0  0  0  0  0  0  0
    0.0587   -0.7317    1.4101 C   0  0  0  0  0  0  0  0  0  0  0  0
   -0.0180    0.4049    0.9795 O   0  0  0  0  0  0  0  0  0  0  0  0
    1.1927   -1.1911    2.3058 C   0  0  0  0  0  0  0  0  0  0  0  0
    2.5140   -1.1696    1.5253 C   0  0  0  0  0  0  0  0  0  0  0  0
    2.8179    0.1830    1.1385 N   0  0  0  0  0  0  0  0  0  0  0  0
    3.9363    0.5247    0.4217 C   0  0  0  0  0  0  0  0  0  0  0  0
    4.9889   -0.3564    0.2527 C   0  0  0  0  0  0  0  0  0  0  0  0
    6.1534    0.0230   -0.4187 C   0  0  0  0  0  0  0  0  0  0  0  0
    6.2864    1.2801   -0.9362 C   0  0  0  0  0  0  0  0  0  0  0  0
    5.2398    2.2143   -0.7968 C   0  0  0  0  0  0  0  0  0  0  0  0
    5.3566    3.5170   -1.3257 C   0  0  0  0  0  0  0  0  0  0  0  0
    4.3473    4.4276   -1.1950 C   0  0  0  0  0  0  0  0  0  0  0  0
    3.1700    4.0690   -0.5265 C   0  0  0  0  0  0  0  0  0  0  0  0
    3.0258    2.8134   -0.0005 C   0  0  0  0  0  0  0  0  0  0  0  0
    4.0478    1.8490   -0.1151 C   0  0  0  0  0  0  0  0  0  0  0  0
   -2.3087   -2.7450   -0.4583 C   0  0  0  0  0  0  0  0  0  0  0  0
   -1.9369   -3.8134   -0.0459 O   0  0  0  0  0  0  0  0  0  0  0  0
   -3.0823   -2.5815   -1.5260 O   0  0  0  0  0  0  0  0  0  0  0  0
   -3.5039   -3.7709   -2.1885 C   0  0  0  0  0  0  0  0  0  0  0  0
   -7.3538    1.6021    1.8214 H   0  0  0  0  0  0  0  0  0  0  0  0
   -7.8736    2.1350    0.1920 H   0  0  0  0  0  0  0  0  0  0  0  0
   -8.1251    0.4425    0.7213 H   0  0  0  0  0  0  0  0  0  0  0  0
   -4.4191   -0.8534   -0.7846 H   0  0  0  0  0  0  0  0  0  0  0  0
   -3.8268    0.7390   -0.3143 H   0  0  0  0  0  0  0  0  0  0  0  0
   -2.8058   -0.1506    1.7058 H   0  0  0  0  0  0  0  0  0  0  0  0
   -3.6585   -1.6869    1.5397 H   0  0  0  0  0  0  0  0  0  0  0  0
   -1.6476   -0.6837   -0.5337 H   0  0  0  0  0  0  0  0  0  0  0  0
   -0.7592   -2.6323    1.4191 H   0  0  0  0  0  0  0  0  0  0  0  0
    1.0059   -2.1924    2.6912 H   0  0  0  0  0  0  0  0  0  0  0  0
    1.2748   -0.4928    3.1406 H   0  0  0  0  0  0  0  0  0  0  0  0
    3.3119   -1.5495    2.1736 H   0  0  0  0  0  0  0  0  0  0  0  0
    2.4356   -1.8409    0.6528 H   0  0  0  0  0  0  0  0  0  0  0  0
    1.9885    0.7347    0.9603 H   0  0  0  0  0  0  0  0  0  0  0  0
    4.9235   -1.3602    0.6425 H   0  0  0  0  0  0  0  0  0  0  0  0
    6.9508   -0.6989   -0.5261 H   0  0  0  0  0  0  0  0  0  0  0  0
    7.1859    1.5754   -1.4560 H   0  0  0  0  0  0  0  0  0  0  0  0
    6.2704    3.7803   -1.8404 H   0  0  0  0  0  0  0  0  0  0  0  0
    4.4484    5.4228   -1.6040 H   0  0  0  0  0  0  0  0  0  0  0  0
    2.3727    4.7914   -0.4270 H   0  0  0  0  0  0  0  0  0  0  0  0
    2.1048    2.5733    0.5099 H   0  0  0  0  0  0  0  0  0  0  0  0
   -4.1605   -4.3510   -1.5377 H   0  0  0  0  0  0  0  0  0  0  0  0
   -4.0351   -3.4494   -3.0801 H   0  0  0  0  0  0  0  0  0  0  0  0
   -2.6392   -4.3814   -2.4532 H   0  0  0  0  0  0  0  0  0  0  0  0
  1  2  1  0  0  0  0
  2  3  1  0  0  0  0
  3  4  2  0  0  0  0
  3  5  1  0  0  0  0
  5  6  1  0  0  0  0
  6  7  1  0  0  0  0
  7  8  1  0  0  0  0
  8  9  1  0  0  0  0
  9 10  2  0  0  0  0
  9 11  1  0  0  0  0
 11 12  1  0  0  0  0
 12 13  1  0  0  0  0
 13 14  1  0  0  0  0
 14 15  2  0  0  0  0
 15 16  1  0  0  0  0
 16 17  2  0  0  0  0
 17 18  1  0  0  0  0
 18 19  2  0  0  0  0
 19 20  1  0  0  0  0
 20 21  2  0  0  0  0
 21 22  1  0  0  0  0
 22 23  2  0  0  0  0
  7 24  1  0  0  0  0
 24 25  2  0  0  0  0
 24 26  1  0  0  0  0
 26 27  1  0  0  0  0
 23 14  1  0  0  0  0
 23 18  1  0  0  0  0
  1 28  1  0  0  0  0
  1 29  1  0  0  0  0
  1 30  1  0  0  0  0
  5 31  1  0  0  0  0
  5 32  1  0  0  0  0
  6 33  1  0  0  0  0
  6 34  1  0  0  0  0
  7 35  1  0  0  0  0
  8 36  1  0  0  0  0
 11 37  1  0  0  0  0
 11 38  1  0  0  0  0
 12 39  1  0  0  0  0
 12 40  1  0  0  0  0
 13 41  1  0  0  0  0
 15 42  1  0  0  0  0
 16 43  1  0  0  0  0
 17 44  1  0  0  0  0
 19 45  1  0  0  0  0
 20 46  1  0  0  0  0
 21 47  1  0  0  0  0
 22 48  1  0  0  0  0
 27 49  1  0  0  0  0
 27 50  1  0  0  0  0
 27 51  1  0  0  0  0
M  END
