
  xtb     03212210473D
 energy: -119.302772740387 gnorm: 0.000228989674 xtb: 6.4.1 (afa7bdf)
 74 80  0     0  0            999 V2000
    9.9309    0.2814   -3.4119 C   0  0  0  0  0  0  0  0  0  0  0  0
    9.3644    0.4351   -2.0054 C   0  0  0  0  0  0  0  0  0  0  0  0
    7.8840    0.0636   -1.9541 C   0  0  0  0  0  0  0  0  0  0  0  0
    7.2944    0.0996   -0.5440 C   0  0  0  0  0  0  0  0  0  0  0  0
    7.1693    1.5161    0.0124 C   0  0  0  0  0  0  0  0  0  0  0  0
    6.5970    1.5377    1.4297 C   0  0  0  0  0  0  0  0  0  0  0  0
    5.2551    0.9682    1.4879 N   0  0  0  0  0  0  0  0  0  0  0  0
    5.1202   -0.3112    1.9994 C   0  0  0  0  0  0  0  0  0  0  0  0
    6.0807   -0.9265    2.4166 O   0  0  0  0  0  0  0  0  0  0  0  0
    3.7574   -0.8728    2.0171 C   0  0  0  0  0  0  0  0  0  0  0  0
    3.5664   -2.1639    2.4621 C   0  0  0  0  0  0  0  0  0  0  0  0
    2.2890   -2.7255    2.4505 C   0  0  0  0  0  0  0  0  0  0  0  0
    1.2061   -1.9880    2.0430 C   0  0  0  0  0  0  0  0  0  0  0  0
    1.3505   -0.6483    1.6304 C   0  0  0  0  0  0  0  0  0  0  0  0
    0.2569    0.1691    1.2159 C   0  0  0  0  0  0  0  0  0  0  0  0
   -1.1177   -0.2563    1.3791 C   0  0  0  0  0  0  0  0  0  0  0  0
   -1.7075   -0.8990    2.4374 C   0  0  0  0  0  0  0  0  0  0  0  0
   -3.0921   -1.0639    2.2883 C   0  0  0  0  0  0  0  0  0  0  0  0
   -3.5800   -0.5382    1.1193 C   0  0  0  0  0  0  0  0  0  0  0  0
   -4.9364   -0.6102    0.6533 C   0  0  0  0  0  0  0  0  0  0  0  0
   -5.8643   -1.6135    0.8778 C   0  0  0  0  0  0  0  0  0  0  0  0
   -6.9936   -1.2568    0.1148 C   0  0  0  0  0  0  0  0  0  0  0  0
   -8.2628   -1.9518   -0.0192 C   0  0  0  0  0  0  0  0  0  0  0  0
   -9.2556   -1.4208   -0.8437 C   0  0  0  0  0  0  0  0  0  0  0  0
  -10.4713   -2.0573   -0.9869 C   0  0  0  0  0  0  0  0  0  0  0  0
  -10.7048   -3.2395   -0.3003 C   0  0  0  0  0  0  0  0  0  0  0  0
  -12.2261   -4.0434   -0.4733 Cl  0  0  0  0  0  0  0  0  0  0  0  0
   -9.7334   -3.7845    0.5240 C   0  0  0  0  0  0  0  0  0  0  0  0
   -8.5189   -3.1407    0.6616 C   0  0  0  0  0  0  0  0  0  0  0  0
   -6.7610   -0.1151   -0.5256 N   0  0  0  0  0  0  0  0  0  0  0  0
   -5.5354    0.2728   -0.1986 N   0  0  0  0  0  0  0  0  0  0  0  0
   -5.0487    1.5034   -0.6687 C   0  0  0  0  0  0  0  0  0  0  0  0
   -4.4109    2.3888    0.1933 C   0  0  0  0  0  0  0  0  0  0  0  0
   -3.9457    3.5966   -0.2927 C   0  0  0  0  0  0  0  0  0  0  0  0
   -4.1306    3.9317   -1.6239 C   0  0  0  0  0  0  0  0  0  0  0  0
   -4.7957    3.0609   -2.4714 C   0  0  0  0  0  0  0  0  0  0  0  0
   -5.2569    1.8464   -1.9987 C   0  0  0  0  0  0  0  0  0  0  0  0
   -2.3016    0.1619    0.1732 S   0  0  0  0  0  0  0  0  0  0  0  0
    0.5118    1.4177    0.6725 C   0  0  0  0  0  0  0  0  0  0  0  0
    1.8020    1.9276    0.5967 C   0  0  0  0  0  0  0  0  0  0  0  0
    2.8718    1.1941    1.0706 C   0  0  0  0  0  0  0  0  0  0  0  0
    2.6605   -0.1041    1.5760 C   0  0  0  0  0  0  0  0  0  0  0  0
    4.2241    1.7693    1.0260 C   0  0  0  0  0  0  0  0  0  0  0  0
    4.4464    2.8907    0.6145 O   0  0  0  0  0  0  0  0  0  0  0  0
    9.3979    0.9243   -4.1092 H   0  0  0  0  0  0  0  0  0  0  0  0
   10.9843    0.5513   -3.4332 H   0  0  0  0  0  0  0  0  0  0  0  0
    9.8333   -0.7471   -3.7534 H   0  0  0  0  0  0  0  0  0  0  0  0
    9.9196   -0.2077   -1.3186 H   0  0  0  0  0  0  0  0  0  0  0  0
    9.4997    1.4676   -1.6796 H   0  0  0  0  0  0  0  0  0  0  0  0
    7.7663   -0.9464   -2.3547 H   0  0  0  0  0  0  0  0  0  0  0  0
    7.3185    0.7413   -2.5983 H   0  0  0  0  0  0  0  0  0  0  0  0
    6.3027   -0.3604   -0.5719 H   0  0  0  0  0  0  0  0  0  0  0  0
    7.9131   -0.5003    0.1270 H   0  0  0  0  0  0  0  0  0  0  0  0
    8.1503    1.9903    0.0509 H   0  0  0  0  0  0  0  0  0  0  0  0
    6.5291    2.1144   -0.6385 H   0  0  0  0  0  0  0  0  0  0  0  0
    7.2223    0.9482    2.1020 H   0  0  0  0  0  0  0  0  0  0  0  0
    6.5340    2.5695    1.7835 H   0  0  0  0  0  0  0  0  0  0  0  0
    4.4227   -2.7313    2.7937 H   0  0  0  0  0  0  0  0  0  0  0  0
    2.1571   -3.7517    2.7587 H   0  0  0  0  0  0  0  0  0  0  0  0
    0.2297   -2.4454    2.0100 H   0  0  0  0  0  0  0  0  0  0  0  0
   -1.1699   -1.1963    3.3199 H   0  0  0  0  0  0  0  0  0  0  0  0
   -3.7201   -1.5312    3.0252 H   0  0  0  0  0  0  0  0  0  0  0  0
   -5.7216   -2.4830    1.4845 H   0  0  0  0  0  0  0  0  0  0  0  0
   -9.0522   -0.4994   -1.3657 H   0  0  0  0  0  0  0  0  0  0  0  0
  -11.2370   -1.6442   -1.6247 H   0  0  0  0  0  0  0  0  0  0  0  0
   -9.9292   -4.7046    1.0525 H   0  0  0  0  0  0  0  0  0  0  0  0
   -7.7670   -3.5697    1.3054 H   0  0  0  0  0  0  0  0  0  0  0  0
   -4.2917    2.1365    1.2366 H   0  0  0  0  0  0  0  0  0  0  0  0
   -3.4464    4.2830    0.3746 H   0  0  0  0  0  0  0  0  0  0  0  0
   -3.7654    4.8764   -1.9969 H   0  0  0  0  0  0  0  0  0  0  0  0
   -4.9535    3.3271   -3.5055 H   0  0  0  0  0  0  0  0  0  0  0  0
   -5.7814    1.1563   -2.6407 H   0  0  0  0  0  0  0  0  0  0  0  0
   -0.3178    2.0198    0.3300 H   0  0  0  0  0  0  0  0  0  0  0  0
    1.9852    2.9105    0.1900 H   0  0  0  0  0  0  0  0  0  0  0  0
  1  2  1  0  0  0  0
  2  3  1  0  0  0  0
  3  4  1  0  0  0  0
  4  5  1  0  0  0  0
  5  6  1  0  0  0  0
  6  7  1  0  0  0  0
  7  8  1  0  0  0  0
  8  9  2  0  0  0  0
  8 10  1  0  0  0  0
 10 11  1  0  0  0  0
 11 12  2  0  0  0  0
 12 13  1  0  0  0  0
 13 14  2  0  0  0  0
 14 15  1  0  0  0  0
 15 16  1  0  0  0  0
 16 17  2  0  0  0  0
 17 18  1  0  0  0  0
 18 19  2  0  0  0  0
 19 20  1  0  0  0  0
 20 21  2  0  0  0  0
 21 22  1  0  0  0  0
 22 23  1  0  0  0  0
 23 24  2  0  0  0  0
 24 25  1  0  0  0  0
 25 26  2  0  0  0  0
 26 27  1  0  0  0  0
 26 28  1  0  0  0  0
 28 29  2  0  0  0  0
 22 30  2  0  0  0  0
 30 31  1  0  0  0  0
 31 32  1  0  0  0  0
 32 33  2  0  0  0  0
 33 34  1  0  0  0  0
 34 35  2  0  0  0  0
 35 36  1  0  0  0  0
 36 37  2  0  0  0  0
 19 38  1  0  0  0  0
 15 39  2  0  0  0  0
 39 40  1  0  0  0  0
 40 41  2  0  0  0  0
 41 42  1  0  0  0  0
 41 43  1  0  0  0  0
 43 44  2  0  0  0  0
 43  7  1  0  0  0  0
 42 10  2  0  0  0  0
 42 14  1  0  0  0  0
 38 16  1  0  0  0  0
 31 20  1  0  0  0  0
 37 32  1  0  0  0  0
 29 23  1  0  0  0  0
  1 45  1  0  0  0  0
  1 46  1  0  0  0  0
  1 47  1  0  0  0  0
  2 48  1  0  0  0  0
  2 49  1  0  0  0  0
  3 50  1  0  0  0  0
  3 51  1  0  0  0  0
  4 52  1  0  0  0  0
  4 53  1  0  0  0  0
  5 54  1  0  0  0  0
  5 55  1  0  0  0  0
  6 56  1  0  0  0  0
  6 57  1  0  0  0  0
 11 58  1  0  0  0  0
 12 59  1  0  0  0  0
 13 60  1  0  0  0  0
 17 61  1  0  0  0  0
 18 62  1  0  0  0  0
 21 63  1  0  0  0  0
 24 64  1  0  0  0  0
 25 65  1  0  0  0  0
 28 66  1  0  0  0  0
 29 67  1  0  0  0  0
 33 68  1  0  0  0  0
 34 69  1  0  0  0  0
 35 70  1  0  0  0  0
 36 71  1  0  0  0  0
 37 72  1  0  0  0  0
 39 73  1  0  0  0  0
 40 74  1  0  0  0  0
M  END
