
  xtb     03212212183D
 energy: -63.639072071256 gnorm: 0.000125088168 xtb: 6.4.1 (afa7bdf)
 38 41  0     0  0            999 V2000
   -6.7885   -0.9776    1.1334 Cl  0  0  0  0  0  0  0  0  0  0  0  0
   -5.0760   -1.0216    0.9105 C   0  0  0  0  0  0  0  0  0  0  0  0
   -4.4773   -2.1703    0.4161 C   0  0  0  0  0  0  0  0  0  0  0  0
   -3.1083   -2.1974    0.2436 C   0  0  0  0  0  0  0  0  0  0  0  0
   -2.3178   -1.0816    0.5350 C   0  0  0  0  0  0  0  0  0  0  0  0
   -0.8841   -1.1699    0.3334 C   0  0  0  0  0  0  0  0  0  0  0  0
   -0.0279   -0.1640    0.0545 C   0  0  0  0  0  0  0  0  0  0  0  0
   -0.4174    1.2292   -0.2346 C   0  0  0  0  0  0  0  0  0  0  0  0
    0.1770    2.2906    0.4389 C   0  0  0  0  0  0  0  0  0  0  0  0
   -0.1853    3.5925    0.1446 C   0  0  0  0  0  0  0  0  0  0  0  0
   -1.1341    3.8492   -0.8305 C   0  0  0  0  0  0  0  0  0  0  0  0
   -1.7206    2.7966   -1.5139 C   0  0  0  0  0  0  0  0  0  0  0  0
   -1.3657    1.4940   -1.2192 C   0  0  0  0  0  0  0  0  0  0  0  0
    1.3860   -0.4445   -0.0476 C   0  0  0  0  0  0  0  0  0  0  0  0
    2.3064    0.4111   -0.3691 N   0  0  0  0  0  0  0  0  0  0  0  0
    3.4823   -0.2897   -0.3473 C   0  0  0  0  0  0  0  0  0  0  0  0
    4.7925    0.0958   -0.6028 C   0  0  0  0  0  0  0  0  0  0  0  0
    5.7674   -0.8740   -0.4918 C   0  0  0  0  0  0  0  0  0  0  0  0
    5.4617   -2.1891   -0.1382 C   0  0  0  0  0  0  0  0  0  0  0  0
    4.1644   -2.5927    0.1204 C   0  0  0  0  0  0  0  0  0  0  0  0
    3.1865   -1.6234    0.0096 C   0  0  0  0  0  0  0  0  0  0  0  0
    1.8473   -1.7083    0.1979 O   0  0  0  0  0  0  0  0  0  0  0  0
   -2.9442    0.0556    1.0519 C   0  0  0  0  0  0  0  0  0  0  0  0
   -4.3110    0.0877    1.2398 C   0  0  0  0  0  0  0  0  0  0  0  0
   -5.0792   -3.0327    0.1758 H   0  0  0  0  0  0  0  0  0  0  0  0
   -2.6401   -3.0922   -0.1400 H   0  0  0  0  0  0  0  0  0  0  0  0
   -0.4712   -2.1679    0.4151 H   0  0  0  0  0  0  0  0  0  0  0  0
    0.9184    2.0908    1.1967 H   0  0  0  0  0  0  0  0  0  0  0  0
    0.2779    4.4107    0.6763 H   0  0  0  0  0  0  0  0  0  0  0  0
   -1.4127    4.8668   -1.0614 H   0  0  0  0  0  0  0  0  0  0  0  0
   -2.4546    2.9918   -2.2819 H   0  0  0  0  0  0  0  0  0  0  0  0
   -1.8183    0.6725   -1.7552 H   0  0  0  0  0  0  0  0  0  0  0  0
    5.0219    1.1124   -0.8762 H   0  0  0  0  0  0  0  0  0  0  0  0
    6.7978   -0.6136   -0.6830 H   0  0  0  0  0  0  0  0  0  0  0  0
    6.2604   -2.9115   -0.0644 H   0  0  0  0  0  0  0  0  0  0  0  0
    3.9240   -3.6075    0.3939 H   0  0  0  0  0  0  0  0  0  0  0  0
   -2.3521    0.9137    1.3269 H   0  0  0  0  0  0  0  0  0  0  0  0
   -4.7857    0.9685    1.6428 H   0  0  0  0  0  0  0  0  0  0  0  0
  1  2  1  0  0  0  0
  2  3  2  0  0  0  0
  3  4  1  0  0  0  0
  4  5  2  0  0  0  0
  5  6  1  0  0  0  0
  6  7  2  0  0  0  0
  7  8  1  0  0  0  0
  8  9  2  0  0  0  0
  9 10  1  0  0  0  0
 10 11  2  0  0  0  0
 11 12  1  0  0  0  0
 12 13  2  0  0  0  0
  7 14  1  0  0  0  0
 14 15  2  0  0  0  0
 15 16  1  0  0  0  0
 16 17  2  0  0  0  0
 17 18  1  0  0  0  0
 18 19  2  0  0  0  0
 19 20  1  0  0  0  0
 20 21  2  0  0  0  0
 21 22  1  0  0  0  0
  5 23  1  0  0  0  0
 23 24  2  0  0  0  0
 24  2  1  0  0  0  0
 13  8  1  0  0  0  0
 22 14  1  0  0  0  0
 21 16  1  0  0  0  0
  3 25  1  0  0  0  0
  4 26  1  0  0  0  0
  6 27  1  0  0  0  0
  9 28  1  0  0  0  0
 10 29  1  0  0  0  0
 11 30  1  0  0  0  0
 12 31  1  0  0  0  0
 13 32  1  0  0  0  0
 17 33  1  0  0  0  0
 18 34  1  0  0  0  0
 19 35  1  0  0  0  0
 20 36  1  0  0  0  0
 23 37  1  0  0  0  0
 24 38  1  0  0  0  0
M  END
