
  xtb     03212211333D
 energy: -41.115329933432 gnorm: 0.000233946487 xtb: 6.4.1 (afa7bdf)
 25 26  0     0  0            999 V2000
   -1.8313   -0.0028    1.8551 C   0  0  0  0  0  0  0  0  0  0  0  0
   -1.8428   -0.6058    0.5503 N   0  0  0  0  0  0  0  0  0  0  0  0
   -2.9206   -1.2404    0.0295 C   0  0  0  0  0  0  0  0  0  0  0  0
   -2.6609   -1.5797   -1.2735 C   0  0  0  0  0  0  0  0  0  0  0  0
   -1.3761   -1.1078   -1.5668 C   0  0  0  0  0  0  0  0  0  0  0  0
   -0.8797   -0.5158   -0.4188 C   0  0  0  0  0  0  0  0  0  0  0  0
    0.4345    0.0793   -0.2571 C   0  0  0  0  0  0  0  0  0  0  0  0
    0.9155    0.9313   -1.2497 C   0  0  0  0  0  0  0  0  0  0  0  0
    2.1753    1.5099   -1.1445 C   0  0  0  0  0  0  0  0  0  0  0  0
    2.6360    2.3770   -2.1638 C   0  0  0  0  0  0  0  0  0  0  0  0
    3.0131    3.0797   -2.9866 N   0  0  0  0  0  0  0  0  0  0  0  0
    2.9887    1.2502   -0.0363 C   0  0  0  0  0  0  0  0  0  0  0  0
    2.5410    0.3867    0.9381 C   0  0  0  0  0  0  0  0  0  0  0  0
    1.2812   -0.2091    0.8315 C   0  0  0  0  0  0  0  0  0  0  0  0
    0.9173   -1.1684    1.8013 C   0  0  0  0  0  0  0  0  0  0  0  0
    0.6588   -1.9613    2.5889 N   0  0  0  0  0  0  0  0  0  0  0  0
   -1.6296   -0.7455    2.6310 H   0  0  0  0  0  0  0  0  0  0  0  0
   -1.0668    0.7718    1.9060 H   0  0  0  0  0  0  0  0  0  0  0  0
   -2.8027    0.4539    2.0519 H   0  0  0  0  0  0  0  0  0  0  0  0
   -3.8015   -1.3986    0.6201 H   0  0  0  0  0  0  0  0  0  0  0  0
   -3.3177   -2.1025   -1.9393 H   0  0  0  0  0  0  0  0  0  0  0  0
   -0.8462   -1.2184   -2.4925 H   0  0  0  0  0  0  0  0  0  0  0  0
    0.2918    1.1515   -2.1032 H   0  0  0  0  0  0  0  0  0  0  0  0
    3.9596    1.7152    0.0396 H   0  0  0  0  0  0  0  0  0  0  0  0
    3.1632    0.1500    1.7887 H   0  0  0  0  0  0  0  0  0  0  0  0
  1  2  1  0  0  0  0
  2  3  1  0  0  0  0
  3  4  2  0  0  0  0
  4  5  1  0  0  0  0
  5  6  2  0  0  0  0
  6  7  1  0  0  0  0
  7  8  2  0  0  0  0
  8  9  1  0  0  0  0
  9 10  1  0  0  0  0
 10 11  3  0  0  0  0
  9 12  2  0  0  0  0
 12 13  1  0  0  0  0
 13 14  2  0  0  0  0
 14 15  1  0  0  0  0
 15 16  3  0  0  0  0
  6  2  1  0  0  0  0
 14  7  1  0  0  0  0
  1 17  1  0  0  0  0
  1 18  1  0  0  0  0
  1 19  1  0  0  0  0
  3 20  1  0  0  0  0
  4 21  1  0  0  0  0
  5 22  1  0  0  0  0
  8 23  1  0  0  0  0
 12 24  1  0  0  0  0
 13 25  1  0  0  0  0
M  END
