
  xtb     03212212173D
 energy: -47.048667345292 gnorm: 0.000191498013 xtb: 6.4.1 (afa7bdf)
 31 33  0     0  0            999 V2000
   -6.3544    0.1892   -0.1253 C   0  0  0  0  0  0  0  0  0  0  0  0
   -4.8590    0.1717   -0.1838 C   0  0  0  0  0  0  0  0  0  0  0  0
   -4.1087    0.0244    0.9797 C   0  0  0  0  0  0  0  0  0  0  0  0
   -2.7315   -0.0108    0.9413 C   0  0  0  0  0  0  0  0  0  0  0  0
   -2.0460    0.1011   -0.2729 C   0  0  0  0  0  0  0  0  0  0  0  0
   -0.6048    0.0726   -0.3746 C   0  0  0  0  0  0  0  0  0  0  0  0
    0.2700   -0.0627    0.6369 C   0  0  0  0  0  0  0  0  0  0  0  0
    1.6870   -0.0833    0.4712 C   0  0  0  0  0  0  0  0  0  0  0  0
    2.5208   -0.2135    1.4405 N   0  0  0  0  0  0  0  0  0  0  0  0
    3.8142   -0.2030    1.0304 C   0  0  0  0  0  0  0  0  0  0  0  0
    4.9338   -0.3243    1.8513 C   0  0  0  0  0  0  0  0  0  0  0  0
    6.1860   -0.2942    1.2779 C   0  0  0  0  0  0  0  0  0  0  0  0
    6.3448   -0.1455   -0.0993 C   0  0  0  0  0  0  0  0  0  0  0  0
    5.2512   -0.0235   -0.9341 C   0  0  0  0  0  0  0  0  0  0  0  0
    3.9895   -0.0527   -0.3662 C   0  0  0  0  0  0  0  0  0  0  0  0
    2.4423    0.0750   -1.1403 S   0  0  0  0  0  0  0  0  0  0  0  0
   -2.8045    0.2485   -1.4385 C   0  0  0  0  0  0  0  0  0  0  0  0
   -4.1831    0.2828   -1.3931 C   0  0  0  0  0  0  0  0  0  0  0  0
   -6.7765    0.6016   -1.0384 H   0  0  0  0  0  0  0  0  0  0  0  0
   -6.7002    0.7776    0.7223 H   0  0  0  0  0  0  0  0  0  0  0  0
   -6.7337   -0.8259   -0.0023 H   0  0  0  0  0  0  0  0  0  0  0  0
   -4.6185   -0.0628    1.9289 H   0  0  0  0  0  0  0  0  0  0  0  0
   -2.1811   -0.1247    1.8621 H   0  0  0  0  0  0  0  0  0  0  0  0
   -0.2107    0.1720   -1.3800 H   0  0  0  0  0  0  0  0  0  0  0  0
   -0.0508   -0.1668    1.6630 H   0  0  0  0  0  0  0  0  0  0  0  0
    4.7969   -0.4387    2.9146 H   0  0  0  0  0  0  0  0  0  0  0  0
    7.0617   -0.3871    1.9029 H   0  0  0  0  0  0  0  0  0  0  0  0
    7.3384   -0.1252   -0.5212 H   0  0  0  0  0  0  0  0  0  0  0  0
    5.3708    0.0917   -2.0003 H   0  0  0  0  0  0  0  0  0  0  0  0
   -2.2986    0.3380   -2.3895 H   0  0  0  0  0  0  0  0  0  0  0  0
   -4.7456    0.3985   -2.3087 H   0  0  0  0  0  0  0  0  0  0  0  0
  1  2  1  0  0  0  0
  2  3  2  0  0  0  0
  3  4  1  0  0  0  0
  4  5  2  0  0  0  0
  5  6  1  0  0  0  0
  6  7  2  0  0  0  0
  7  8  1  0  0  0  0
  8  9  2  0  0  0  0
  9 10  1  0  0  0  0
 10 11  2  0  0  0  0
 11 12  1  0  0  0  0
 12 13  2  0  0  0  0
 13 14  1  0  0  0  0
 14 15  2  0  0  0  0
 15 16  1  0  0  0  0
  5 17  1  0  0  0  0
 17 18  2  0  0  0  0
 18  2  1  0  0  0  0
 16  8  1  0  0  0  0
 15 10  1  0  0  0  0
  1 19  1  0  0  0  0
  1 20  1  0  0  0  0
  1 21  1  0  0  0  0
  3 22  1  0  0  0  0
  4 23  1  0  0  0  0
  6 24  1  0  0  0  0
  7 25  1  0  0  0  0
 11 26  1  0  0  0  0
 12 27  1  0  0  0  0
 13 28  1  0  0  0  0
 14 29  1  0  0  0  0
 17 30  1  0  0  0  0
 18 31  1  0  0  0  0
M  END
