
  xtb     03212212063D
 energy: -85.150451426893 gnorm: 0.000146161742 xtb: 6.4.1 (afa7bdf)
 56 62  0     0  0            999 V2000
    1.6700    1.2826   -2.2285 O   0  0  0  0  0  0  0  0  0  0  0  0
    2.5917    0.5778   -1.5115 C   0  0  0  0  0  0  0  0  0  0  0  0
    3.9608    0.6959   -1.8043 C   0  0  0  0  0  0  0  0  0  0  0  0
    4.8874   -0.0214   -1.1038 C   0  0  0  0  0  0  0  0  0  0  0  0
    4.4899   -0.9012   -0.0784 C   0  0  0  0  0  0  0  0  0  0  0  0
    5.4292   -1.6520    0.6587 C   0  0  0  0  0  0  0  0  0  0  0  0
    5.0251   -2.4942    1.6553 C   0  0  0  0  0  0  0  0  0  0  0  0
    3.6605   -2.6182    1.9587 C   0  0  0  0  0  0  0  0  0  0  0  0
    2.7256   -1.9040    1.2635 C   0  0  0  0  0  0  0  0  0  0  0  0
    3.1077   -1.0319    0.2216 C   0  0  0  0  0  0  0  0  0  0  0  0
    2.1611   -0.2662   -0.5033 C   0  0  0  0  0  0  0  0  0  0  0  0
    0.7118   -0.3769   -0.2391 C   0  0  0  0  0  0  0  0  0  0  0  0
    0.1804   -1.5833   -0.4094 N   0  0  0  0  0  0  0  0  0  0  0  0
   -1.1186   -1.7460   -0.2734 C   0  0  0  0  0  0  0  0  0  0  0  0
   -2.0081   -0.6918   -0.0032 C   0  0  0  0  0  0  0  0  0  0  0  0
   -1.4680    0.5921    0.0877 C   0  0  0  0  0  0  0  0  0  0  0  0
   -0.0734    0.7429    0.0540 C   0  0  0  0  0  0  0  0  0  0  0  0
    0.4946    2.0729    0.2915 C   0  0  0  0  0  0  0  0  0  0  0  0
    1.7059    2.2675    0.9468 C   0  0  0  0  0  0  0  0  0  0  0  0
    2.2052    3.5451    1.1248 C   0  0  0  0  0  0  0  0  0  0  0  0
    1.4967    4.6410    0.6624 C   0  0  0  0  0  0  0  0  0  0  0  0
    0.2663    4.4579    0.0530 C   0  0  0  0  0  0  0  0  0  0  0  0
   -0.2448    3.1844   -0.1245 C   0  0  0  0  0  0  0  0  0  0  0  0
   -1.5946    2.9230   -0.7202 C   0  0  0  0  0  0  0  0  0  0  0  0
   -2.2941    1.8475    0.1151 C   0  0  0  0  0  0  0  0  0  0  0  0
   -3.4297   -1.0258    0.1375 C   0  0  0  0  0  0  0  0  0  0  0  0
   -4.2874   -0.3276    0.9835 C   0  0  0  0  0  0  0  0  0  0  0  0
   -5.6229   -0.6753    1.0807 C   0  0  0  0  0  0  0  0  0  0  0  0
   -6.1209   -1.7324    0.3404 C   0  0  0  0  0  0  0  0  0  0  0  0
   -5.2638   -2.4723   -0.4573 C   0  0  0  0  0  0  0  0  0  0  0  0
   -3.9233   -2.1422   -0.5528 C   0  0  0  0  0  0  0  0  0  0  0  0
   -2.9550   -2.9814   -1.3342 C   0  0  0  0  0  0  0  0  0  0  0  0
   -1.6723   -3.1187   -0.5152 C   0  0  0  0  0  0  0  0  0  0  0  0
    2.1230    1.8264   -2.8839 H   0  0  0  0  0  0  0  0  0  0  0  0
    4.2684    1.3659   -2.5975 H   0  0  0  0  0  0  0  0  0  0  0  0
    5.9388    0.0768   -1.3321 H   0  0  0  0  0  0  0  0  0  0  0  0
    6.4778   -1.5451    0.4186 H   0  0  0  0  0  0  0  0  0  0  0  0
    5.7498   -3.0664    2.2161 H   0  0  0  0  0  0  0  0  0  0  0  0
    3.3538   -3.2847    2.7517 H   0  0  0  0  0  0  0  0  0  0  0  0
    1.6771   -2.0062    1.4955 H   0  0  0  0  0  0  0  0  0  0  0  0
    2.2534    1.4207    1.3321 H   0  0  0  0  0  0  0  0  0  0  0  0
    3.1499    3.6845    1.6298 H   0  0  0  0  0  0  0  0  0  0  0  0
    1.8914    5.6380    0.7938 H   0  0  0  0  0  0  0  0  0  0  0  0
   -0.3045    5.3133   -0.2815 H   0  0  0  0  0  0  0  0  0  0  0  0
   -1.4797    2.5612   -1.7470 H   0  0  0  0  0  0  0  0  0  0  0  0
   -2.1908    3.8365   -0.7438 H   0  0  0  0  0  0  0  0  0  0  0  0
   -3.2898    1.6509   -0.2845 H   0  0  0  0  0  0  0  0  0  0  0  0
   -2.3975    2.2125    1.1426 H   0  0  0  0  0  0  0  0  0  0  0  0
   -3.9039    0.4695    1.6004 H   0  0  0  0  0  0  0  0  0  0  0  0
   -6.2740   -0.1207    1.7406 H   0  0  0  0  0  0  0  0  0  0  0  0
   -7.1656   -1.9986    0.4047 H   0  0  0  0  0  0  0  0  0  0  0  0
   -5.6395   -3.3261   -1.0037 H   0  0  0  0  0  0  0  0  0  0  0  0
   -3.3862   -3.9606   -1.5473 H   0  0  0  0  0  0  0  0  0  0  0  0
   -2.7227   -2.4976   -2.2888 H   0  0  0  0  0  0  0  0  0  0  0  0
   -0.9234   -3.7172   -1.0328 H   0  0  0  0  0  0  0  0  0  0  0  0
   -1.8994   -3.6006    0.4410 H   0  0  0  0  0  0  0  0  0  0  0  0
  1  2  1  0  0  0  0
  2  3  2  0  0  0  0
  3  4  1  0  0  0  0
  4  5  2  0  0  0  0
  5  6  1  0  0  0  0
  6  7  2  0  0  0  0
  7  8  1  0  0  0  0
  8  9  2  0  0  0  0
  9 10  1  0  0  0  0
 10 11  2  0  0  0  0
 11 12  1  0  0  0  0
 12 13  2  0  0  0  0
 13 14  1  0  0  0  0
 14 15  2  0  0  0  0
 15 16  1  0  0  0  0
 16 17  2  0  0  0  0
 17 18  1  0  0  0  0
 18 19  2  0  0  0  0
 19 20  1  0  0  0  0
 20 21  2  0  0  0  0
 21 22  1  0  0  0  0
 22 23  2  0  0  0  0
 23 24  1  0  0  0  0
 24 25  1  0  0  0  0
 15 26  1  0  0  0  0
 26 27  2  0  0  0  0
 27 28  1  0  0  0  0
 28 29  2  0  0  0  0
 29 30  1  0  0  0  0
 30 31  2  0  0  0  0
 31 32  1  0  0  0  0
 32 33  1  0  0  0  0
 11  2  1  0  0  0  0
 17 12  1  0  0  0  0
 23 18  1  0  0  0  0
 31 26  1  0  0  0  0
 10  5  1  0  0  0  0
 33 14  1  0  0  0  0
 25 16  1  0  0  0  0
  1 34  1  0  0  0  0
  3 35  1  0  0  0  0
  4 36  1  0  0  0  0
  6 37  1  0  0  0  0
  7 38  1  0  0  0  0
  8 39  1  0  0  0  0
  9 40  1  0  0  0  0
 19 41  1  0  0  0  0
 20 42  1  0  0  0  0
 21 43  1  0  0  0  0
 22 44  1  0  0  0  0
 24 45  1  0  0  0  0
 24 46  1  0  0  0  0
 25 47  1  0  0  0  0
 25 48  1  0  0  0  0
 27 49  1  0  0  0  0
 28 50  1  0  0  0  0
 29 51  1  0  0  0  0
 30 52  1  0  0  0  0
 32 53  1  0  0  0  0
 32 54  1  0  0  0  0
 33 55  1  0  0  0  0
 33 56  1  0  0  0  0
M  END
