
  xtb     03212210403D
 energy: -47.442389041981 gnorm: 0.000221602668 xtb: 6.4.1 (afa7bdf)
 28 30  0     0  0            999 V2000
    4.5914    1.9360    3.5812 C   0  0  0  0  0  0  0  0  0  0  0  0
    3.7439    1.6305    2.7873 C   0  0  0  0  0  0  0  0  0  0  0  0
    2.7527    1.2812    1.8400 C   0  0  0  0  0  0  0  0  0  0  0  0
    2.8380    1.8030    0.5254 C   0  0  0  0  0  0  0  0  0  0  0  0
    1.8957    1.4819   -0.4034 C   0  0  0  0  0  0  0  0  0  0  0  0
    0.8163    0.6252   -0.0799 C   0  0  0  0  0  0  0  0  0  0  0  0
   -0.1641    0.2829   -1.0190 C   0  0  0  0  0  0  0  0  0  0  0  0
   -1.2167   -0.5545   -0.6980 C   0  0  0  0  0  0  0  0  0  0  0  0
   -2.2574   -0.9397   -1.6264 C   0  0  0  0  0  0  0  0  0  0  0  0
   -2.2355   -0.4229   -3.0278 C   0  0  0  0  0  0  0  0  0  0  0  0
   -3.2318   -1.7665   -1.1943 C   0  0  0  0  0  0  0  0  0  0  0  0
   -3.2873   -2.2889    0.1604 C   0  0  0  0  0  0  0  0  0  0  0  0
   -4.1407   -3.0301    0.5796 O   0  0  0  0  0  0  0  0  0  0  0  0
   -2.2916   -1.9031    1.0115 O   0  0  0  0  0  0  0  0  0  0  0  0
   -1.2909   -1.0745    0.6230 C   0  0  0  0  0  0  0  0  0  0  0  0
   -0.3405   -0.7524    1.5634 C   0  0  0  0  0  0  0  0  0  0  0  0
    0.7287    0.0986    1.2407 C   0  0  0  0  0  0  0  0  0  0  0  0
    1.7154    0.4456    2.1839 C   0  0  0  0  0  0  0  0  0  0  0  0
    5.3290    2.1981    4.2797 H   0  0  0  0  0  0  0  0  0  0  0  0
    3.6618    2.4566    0.2796 H   0  0  0  0  0  0  0  0  0  0  0  0
    1.9584    1.8786   -1.4066 H   0  0  0  0  0  0  0  0  0  0  0  0
   -0.0835    0.6904   -2.0151 H   0  0  0  0  0  0  0  0  0  0  0  0
   -1.3230   -0.7373   -3.5323 H   0  0  0  0  0  0  0  0  0  0  0  0
   -2.2672    0.6656   -3.0304 H   0  0  0  0  0  0  0  0  0  0  0  0
   -3.0896   -0.7990   -3.5840 H   0  0  0  0  0  0  0  0  0  0  0  0
   -4.0337   -2.0886   -1.8401 H   0  0  0  0  0  0  0  0  0  0  0  0
   -0.4272   -1.1639    2.5568 H   0  0  0  0  0  0  0  0  0  0  0  0
    1.6498    0.0472    3.1858 H   0  0  0  0  0  0  0  0  0  0  0  0
  1  2  3  0  0  0  0
  2  3  1  0  0  0  0
  3  4  2  0  0  0  0
  4  5  1  0  0  0  0
  5  6  2  0  0  0  0
  6  7  1  0  0  0  0
  7  8  2  0  0  0  0
  8  9  1  0  0  0  0
  9 10  1  0  0  0  0
  9 11  2  0  0  0  0
 11 12  1  0  0  0  0
 12 13  2  0  0  0  0
 12 14  1  0  0  0  0
 14 15  1  0  0  0  0
 15 16  2  0  0  0  0
 16 17  1  0  0  0  0
 17 18  2  0  0  0  0
 18  3  1  0  0  0  0
 17  6  1  0  0  0  0
 15  8  1  0  0  0  0
  1 19  1  0  0  0  0
  4 20  1  0  0  0  0
  5 21  1  0  0  0  0
  7 22  1  0  0  0  0
 10 23  1  0  0  0  0
 10 24  1  0  0  0  0
 10 25  1  0  0  0  0
 11 26  1  0  0  0  0
 16 27  1  0  0  0  0
 18 28  1  0  0  0  0
M  END
