
  xtb     03212210443D
 energy: -88.068754323549 gnorm: 0.000202968093 xtb: 6.4.1 (afa7bdf)
 46 50  0     0  0            999 V2000
    0.5914   -1.9661   -1.8930 F   0  0  0  0  0  0  0  0  0  0  0  0
    0.1794   -1.5421   -0.6443 B   0  0  0  0  0  4  0  0  0  0  0  0
    1.0975   -1.9385    0.3156 F   0  0  0  0  0  0  0  0  0  0  0  0
   -1.2004   -2.1481   -0.3115 N   0  0  0  0  0  0  0  0  0  0  0  0
   -1.5335   -3.4480   -0.2564 C   0  0  0  0  0  0  0  0  0  0  0  0
   -0.4191   -4.6786   -0.5647 Cl  0  0  0  0  0  0  0  0  0  0  0  0
   -2.8790   -3.5948    0.0807 C   0  0  0  0  0  0  0  0  0  0  0  0
   -3.3843   -2.3162    0.2385 C   0  0  0  0  0  0  0  0  0  0  0  0
   -2.3288   -1.4244   -0.0042 C   0  0  0  0  0  0  0  0  0  0  0  0
   -2.2926   -0.0218    0.0080 C   0  0  0  0  0  0  0  0  0  0  0  0
   -3.5217    0.7271    0.3408 C   0  0  0  0  0  0  0  0  0  0  0  0
   -4.2421    1.4044   -0.6414 C   0  0  0  0  0  0  0  0  0  0  0  0
   -3.6793    1.3574   -2.2721 Cl  0  0  0  0  0  0  0  0  0  0  0  0
   -5.4028    2.0965   -0.3356 C   0  0  0  0  0  0  0  0  0  0  0  0
   -5.8567    2.1186    0.9716 C   0  0  0  0  0  0  0  0  0  0  0  0
   -5.1617    1.4568    1.9687 C   0  0  0  0  0  0  0  0  0  0  0  0
   -4.0039    0.7664    1.6480 C   0  0  0  0  0  0  0  0  0  0  0  0
   -3.1193   -0.0470    2.8856 Cl  0  0  0  0  0  0  0  0  0  0  0  0
   -1.1321    0.6534   -0.2982 C   0  0  0  0  0  0  0  0  0  0  0  0
   -0.9104    2.0559   -0.3468 C   0  0  0  0  0  0  0  0  0  0  0  0
    0.3846    2.2441   -0.7180 C   0  0  0  0  0  0  0  0  0  0  0  0
    0.9746    0.9508   -0.8924 C   0  0  0  0  0  0  0  0  0  0  0  0
    2.2401    0.8168   -1.2958 N   0  0  0  0  0  0  0  0  0  0  0  0
    3.1076   -0.3403   -1.4039 C   0  0  0  0  0  0  0  0  0  0  0  0
    4.2715   -0.1711   -0.4603 C   0  0  0  0  0  0  0  0  0  0  0  0
    5.4499    0.4258   -0.8881 C   0  0  0  0  0  0  0  0  0  0  0  0
    6.4983    0.6180   -0.0048 C   0  0  0  0  0  0  0  0  0  0  0  0
    6.3722    0.2217    1.3155 C   0  0  0  0  0  0  0  0  0  0  0  0
    5.1973   -0.3700    1.7490 C   0  0  0  0  0  0  0  0  0  0  0  0
    4.1498   -0.5646    0.8663 C   0  0  0  0  0  0  0  0  0  0  0  0
    0.0558    0.0069   -0.6313 N   0  0  0  0  0  4  0  0  0  0  0  0
   -3.3946   -4.5269    0.1889 H   0  0  0  0  0  0  0  0  0  0  0  0
   -4.3879   -2.0400    0.4964 H   0  0  0  0  0  0  0  0  0  0  0  0
   -5.9405    2.6075   -1.1177 H   0  0  0  0  0  0  0  0  0  0  0  0
   -6.7597    2.6560    1.2150 H   0  0  0  0  0  0  0  0  0  0  0  0
   -5.5080    1.4719    2.9893 H   0  0  0  0  0  0  0  0  0  0  0  0
   -1.6503    2.8005   -0.1273 H   0  0  0  0  0  0  0  0  0  0  0  0
    0.9034    3.1720   -0.8609 H   0  0  0  0  0  0  0  0  0  0  0  0
    2.7262    1.6953   -1.4151 H   0  0  0  0  0  0  0  0  0  0  0  0
    3.4604   -0.4069   -2.4389 H   0  0  0  0  0  0  0  0  0  0  0  0
    2.5588   -1.2431   -1.1660 H   0  0  0  0  0  0  0  0  0  0  0  0
    5.5528    0.7316   -1.9203 H   0  0  0  0  0  0  0  0  0  0  0  0
    7.4142    1.0765   -0.3479 H   0  0  0  0  0  0  0  0  0  0  0  0
    7.1902    0.3714    2.0046 H   0  0  0  0  0  0  0  0  0  0  0  0
    5.0982   -0.6831    2.7776 H   0  0  0  0  0  0  0  0  0  0  0  0
    3.2353   -1.0319    1.1969 H   0  0  0  0  0  0  0  0  0  0  0  0
  1  2  1  0  0  0  0
  2  3  1  0  0  0  0
  2  4  1  0  0  0  0
  4  5  1  0  0  0  0
  5  6  1  0  0  0  0
  5  7  2  0  0  0  0
  7  8  1  0  0  0  0
  8  9  2  0  0  0  0
  9 10  1  0  0  0  0
 10 11  1  0  0  0  0
 11 12  2  0  0  0  0
 12 13  1  0  0  0  0
 12 14  1  0  0  0  0
 14 15  2  0  0  0  0
 15 16  1  0  0  0  0
 16 17  2  0  0  0  0
 17 18  1  0  0  0  0
 10 19  2  0  0  0  0
 19 20  1  0  0  0  0
 20 21  2  0  0  0  0
 21 22  1  0  0  0  0
 22 23  1  0  0  0  0
 23 24  1  0  0  0  0
 24 25  1  0  0  0  0
 25 26  2  0  0  0  0
 26 27  1  0  0  0  0
 27 28  2  0  0  0  0
 28 29  1  0  0  0  0
 29 30  2  0  0  0  0
 22 31  2  0  0  0  0
 31  2  1  0  0  0  0
  9  4  1  0  0  0  0
 17 11  1  0  0  0  0
 31 19  1  0  0  0  0
 30 25  1  0  0  0  0
  7 32  1  0  0  0  0
  8 33  1  0  0  0  0
 14 34  1  0  0  0  0
 15 35  1  0  0  0  0
 16 36  1  0  0  0  0
 20 37  1  0  0  0  0
 21 38  1  0  0  0  0
 23 39  1  0  0  0  0
 24 40  1  0  0  0  0
 24 41  1  0  0  0  0
 26 42  1  0  0  0  0
 27 43  1  0  0  0  0
 28 44  1  0  0  0  0
 29 45  1  0  0  0  0
 30 46  1  0  0  0  0
M  CHG  1   2  -1
M  CHG  1  31   1
M  END
