
  xtb     03212212153D
 energy: -109.143187822620 gnorm: 0.000106590026 xtb: 6.4.1 (afa7bdf)
 69 78  0     0  0            999 V2000
   -6.5051   -3.4518    1.9634 C   0  0  0  0  0  0  0  0  0  0  0  0
   -5.1470   -3.4023    1.7143 C   0  0  0  0  0  0  0  0  0  0  0  0
   -4.6058   -2.3532    0.9927 C   0  0  0  0  0  0  0  0  0  0  0  0
   -5.4041   -1.3254    0.4866 C   0  0  0  0  0  0  0  0  0  0  0  0
   -6.7774   -1.3992    0.7348 C   0  0  0  0  0  0  0  0  0  0  0  0
   -7.3137   -2.4428    1.4703 C   0  0  0  0  0  0  0  0  0  0  0  0
   -7.9295   -0.2111    0.1038 S   0  0  0  0  0  0  0  0  0  0  0  0
   -6.8448    1.0739   -0.4530 C   0  0  0  0  0  0  0  0  0  0  0  0
   -7.4431    2.2746   -0.7963 C   0  0  0  0  0  0  0  0  0  0  0  0
   -6.6925    3.3226   -1.2994 C   0  0  0  0  0  0  0  0  0  0  0  0
   -5.3301    3.1544   -1.4562 C   0  0  0  0  0  0  0  0  0  0  0  0
   -4.7267    1.9612   -1.1001 C   0  0  0  0  0  0  0  0  0  0  0  0
   -5.4650    0.8942   -0.5845 C   0  0  0  0  0  0  0  0  0  0  0  0
   -4.8199   -0.2881   -0.2344 N   0  0  0  0  0  0  0  0  0  0  0  0
   -3.4168   -0.3704   -0.4773 C   0  0  0  0  0  0  0  0  0  0  0  0
   -2.9678   -0.9703   -1.6487 C   0  0  0  0  0  0  0  0  0  0  0  0
   -1.6128   -1.0727   -1.9137 C   0  0  0  0  0  0  0  0  0  0  0  0
   -0.7133   -0.5656   -0.9905 C   0  0  0  0  0  0  0  0  0  0  0  0
   -1.1709    0.0427    0.1943 C   0  0  0  0  0  0  0  0  0  0  0  0
   -2.5204    0.1428    0.4567 C   0  0  0  0  0  0  0  0  0  0  0  0
   -0.0133    0.4931    0.9961 C   0  0  0  0  0  0  0  0  0  0  0  0
   -0.0110    0.4460    2.5095 C   0  0  0  0  0  0  0  0  0  0  0  0
   -0.0461    1.7618    1.8218 C   0  0  0  0  0  0  0  0  0  0  0  0
    1.1652    0.1043    0.1923 C   0  0  0  0  0  0  0  0  0  0  0  0
    2.5080    0.2779    0.4512 C   0  0  0  0  0  0  0  0  0  0  0  0
    3.4285   -0.1839   -0.4862 C   0  0  0  0  0  0  0  0  0  0  0  0
    4.8254   -0.0158   -0.2524 N   0  0  0  0  0  0  0  0  0  0  0  0
    5.4832   -1.0252    0.4441 C   0  0  0  0  0  0  0  0  0  0  0  0
    4.7569   -2.1071    0.9456 C   0  0  0  0  0  0  0  0  0  0  0  0
    5.3724   -3.1322    1.6418 C   0  0  0  0  0  0  0  0  0  0  0  0
    6.7348   -3.1026    1.8695 C   0  0  0  0  0  0  0  0  0  0  0  0
    7.4723   -2.0377    1.3825 C   0  0  0  0  0  0  0  0  0  0  0  0
    6.8618   -1.0173    0.6729 C   0  0  0  0  0  0  0  0  0  0  0  0
    7.9286    0.2522    0.0504 S   0  0  0  0  0  0  0  0  0  0  0  0
    6.7586    1.4726   -0.4781 C   0  0  0  0  0  0  0  0  0  0  0  0
    7.2766    2.7121   -0.8139 C   0  0  0  0  0  0  0  0  0  0  0  0
    6.4562    3.7166   -1.2964 C   0  0  0  0  0  0  0  0  0  0  0  0
    5.1056    3.4647   -1.4413 C   0  0  0  0  0  0  0  0  0  0  0  0
    4.5822    2.2322   -1.0930 C   0  0  0  0  0  0  0  0  0  0  0  0
    5.3913    1.2082   -0.5965 C   0  0  0  0  0  0  0  0  0  0  0  0
    3.0097   -0.8096   -1.6553 C   0  0  0  0  0  0  0  0  0  0  0  0
    1.6617   -0.9867   -1.9162 C   0  0  0  0  0  0  0  0  0  0  0  0
    0.7383   -0.5275   -0.9916 C   0  0  0  0  0  0  0  0  0  0  0  0
   -6.9357   -4.2634    2.5282 H   0  0  0  0  0  0  0  0  0  0  0  0
   -4.4947   -4.1800    2.0815 H   0  0  0  0  0  0  0  0  0  0  0  0
   -3.5424   -2.3349    0.8114 H   0  0  0  0  0  0  0  0  0  0  0  0
   -8.3796   -2.4571    1.6399 H   0  0  0  0  0  0  0  0  0  0  0  0
   -8.5115    2.3696   -0.6741 H   0  0  0  0  0  0  0  0  0  0  0  0
   -7.1711    4.2506   -1.5695 H   0  0  0  0  0  0  0  0  0  0  0  0
   -4.7230    3.9521   -1.8566 H   0  0  0  0  0  0  0  0  0  0  0  0
   -3.6618    1.8518   -1.2334 H   0  0  0  0  0  0  0  0  0  0  0  0
   -3.6941   -1.3567   -2.3479 H   0  0  0  0  0  0  0  0  0  0  0  0
   -1.2682   -1.5396   -2.8235 H   0  0  0  0  0  0  0  0  0  0  0  0
   -2.8942    0.6043    1.3593 H   0  0  0  0  0  0  0  0  0  0  0  0
   -0.9074    0.0861    2.9911 H   0  0  0  0  0  0  0  0  0  0  0  0
    0.9036    0.1337    2.9900 H   0  0  0  0  0  0  0  0  0  0  0  0
    0.8440    2.3723    1.8201 H   0  0  0  0  0  0  0  0  0  0  0  0
   -0.9670    2.3247    1.8213 H   0  0  0  0  0  0  0  0  0  0  0  0
    2.8583    0.7601    1.3524 H   0  0  0  0  0  0  0  0  0  0  0  0
    3.6915   -2.1501    0.7811 H   0  0  0  0  0  0  0  0  0  0  0  0
    4.7746   -3.9539    2.0062 H   0  0  0  0  0  0  0  0  0  0  0  0
    7.2231   -3.8954    2.4137 H   0  0  0  0  0  0  0  0  0  0  0  0
    8.5396   -1.9888    1.5370 H   0  0  0  0  0  0  0  0  0  0  0  0
    8.3383    2.8724   -0.7023 H   0  0  0  0  0  0  0  0  0  0  0  0
    6.8726    4.6758   -1.5606 H   0  0  0  0  0  0  0  0  0  0  0  0
    4.4451    4.2268   -1.8265 H   0  0  0  0  0  0  0  0  0  0  0  0
    3.5249    2.0577   -1.2177 H   0  0  0  0  0  0  0  0  0  0  0  0
    3.7541   -1.1557   -2.3566 H   0  0  0  0  0  0  0  0  0  0  0  0
    1.3407   -1.4726   -2.8247 H   0  0  0  0  0  0  0  0  0  0  0  0
  1  2  2  0  0  0  0
  2  3  1  0  0  0  0
  3  4  2  0  0  0  0
  4  5  1  0  0  0  0
  5  6  2  0  0  0  0
  5  7  1  0  0  0  0
  7  8  1  0  0  0  0
  8  9  2  0  0  0  0
  9 10  1  0  0  0  0
 10 11  2  0  0  0  0
 11 12  1  0  0  0  0
 12 13  2  0  0  0  0
 13 14  1  0  0  0  0
 14 15  1  0  0  0  0
 15 16  2  0  0  0  0
 16 17  1  0  0  0  0
 17 18  2  0  0  0  0
 18 19  1  0  0  0  0
 19 20  2  0  0  0  0
 19 21  1  0  0  0  0
 21 22  1  0  0  0  0
 22 23  1  0  0  0  0
 21 24  1  0  0  0  0
 24 25  2  0  0  0  0
 25 26  1  0  0  0  0
 26 27  1  0  0  0  0
 27 28  1  0  0  0  0
 28 29  2  0  0  0  0
 29 30  1  0  0  0  0
 30 31  2  0  0  0  0
 31 32  1  0  0  0  0
 32 33  2  0  0  0  0
 33 34  1  0  0  0  0
 34 35  1  0  0  0  0
 35 36  2  0  0  0  0
 36 37  1  0  0  0  0
 37 38  2  0  0  0  0
 38 39  1  0  0  0  0
 39 40  2  0  0  0  0
 26 41  2  0  0  0  0
 41 42  1  0  0  0  0
 42 43  2  0  0  0  0
  6  1  1  0  0  0  0
 13  8  1  0  0  0  0
 20 15  1  0  0  0  0
 23 21  1  0  0  0  0
 43 24  1  0  0  0  0
 14  4  1  0  0  0  0
 43 18  1  0  0  0  0
 40 27  1  0  0  0  0
 33 28  1  0  0  0  0
 40 35  1  0  0  0  0
  1 44  1  0  0  0  0
  2 45  1  0  0  0  0
  3 46  1  0  0  0  0
  6 47  1  0  0  0  0
  9 48  1  0  0  0  0
 10 49  1  0  0  0  0
 11 50  1  0  0  0  0
 12 51  1  0  0  0  0
 16 52  1  0  0  0  0
 17 53  1  0  0  0  0
 20 54  1  0  0  0  0
 22 55  1  0  0  0  0
 22 56  1  0  0  0  0
 23 57  1  0  0  0  0
 23 58  1  0  0  0  0
 25 59  1  0  0  0  0
 29 60  1  0  0  0  0
 30 61  1  0  0  0  0
 31 62  1  0  0  0  0
 32 63  1  0  0  0  0
 36 64  1  0  0  0  0
 37 65  1  0  0  0  0
 38 66  1  0  0  0  0
 39 67  1  0  0  0  0
 41 68  1  0  0  0  0
 42 69  1  0  0  0  0
M  END
