
  xtb     03212211173D
 energy: -110.781632709700 gnorm: 0.000240995166 xtb: 6.4.1 (afa7bdf)
 66 70  0     0  0            999 V2000
    0.6264   -2.6521   -2.0237 C   0  0  0  0  0  0  0  0  0  0  0  0
   -0.8003   -2.7858   -1.5210 C   0  0  0  0  0  0  0  0  0  0  0  0
   -1.2812   -1.4915   -1.1635 O   0  0  0  0  0  0  0  0  0  0  0  0
   -2.2146   -1.4206   -0.2078 C   0  0  0  0  0  0  0  0  0  0  0  0
   -2.6856   -2.3813    0.3504 O   0  0  0  0  0  0  0  0  0  0  0  0
   -2.5535   -0.0197    0.0799 C   0  0  0  0  0  0  0  0  0  0  0  0
   -1.6712    1.0867    0.1563 C   0  0  0  0  0  0  0  0  0  0  0  0
   -0.2276    1.0739   -0.0156 C   0  0  0  0  0  0  0  0  0  0  0  0
    0.5551    0.1181    0.5405 C   0  0  0  0  0  0  0  0  0  0  0  0
    1.9612    0.1111    0.3144 C   0  0  0  0  0  0  0  0  0  0  0  0
    2.8310   -0.8537    0.8314 C   0  0  0  0  0  0  0  0  0  0  0  0
    4.1846   -0.8212    0.5807 C   0  0  0  0  0  0  0  0  0  0  0  0
    4.7073    0.2196   -0.2108 C   0  0  0  0  0  0  0  0  0  0  0  0
    3.8562    1.1817   -0.7464 C   0  0  0  0  0  0  0  0  0  0  0  0
    2.4954    1.1317   -0.4916 C   0  0  0  0  0  0  0  0  0  0  0  0
    1.7098    2.0884   -1.0341 O   0  0  0  0  0  0  0  0  0  0  0  0
    0.3534    2.1279   -0.8545 C   0  0  0  0  0  0  0  0  0  0  0  0
   -0.2607    3.0026   -1.4068 O   0  0  0  0  0  0  0  0  0  0  0  0
    6.0125    0.3460   -0.5179 O   0  0  0  0  0  0  0  0  0  0  0  0
    6.9610   -0.4759    0.1732 C   0  0  0  0  0  0  0  0  0  0  0  0
    7.2774    0.1675    1.5273 C   0  0  0  0  0  0  0  0  0  0  0  0
    8.2096   -0.4854   -0.7084 C   0  0  0  0  0  0  0  0  0  0  0  0
    6.4041   -1.8953    0.3296 C   0  0  0  0  0  0  0  0  0  0  0  0
    5.1016   -1.8822    1.1226 C   0  0  0  0  0  0  0  0  0  0  0  0
   -2.3519    2.1831    0.4259 N   0  0  0  0  0  0  0  0  0  0  0  0
   -3.6296    1.8481    0.5418 N   0  0  0  0  0  0  0  0  0  0  0  0
   -4.5570    2.8930    0.7265 C   0  0  0  0  0  0  0  0  0  0  0  0
   -4.2564    4.1172    0.1342 C   0  0  0  0  0  0  0  0  0  0  0  0
   -5.1173    5.1847    0.2985 C   0  0  0  0  0  0  0  0  0  0  0  0
   -6.2731    5.0384    1.0495 C   0  0  0  0  0  0  0  0  0  0  0  0
   -6.5587    3.8225    1.6468 C   0  0  0  0  0  0  0  0  0  0  0  0
   -5.7017    2.7453    1.4980 C   0  0  0  0  0  0  0  0  0  0  0  0
   -3.8134    0.5159    0.3399 C   0  0  0  0  0  0  0  0  0  0  0  0
   -5.0789   -0.2504    0.3132 C   0  0  0  0  0  0  0  0  0  0  0  0
   -5.9820   -0.1590    1.1062 O   0  0  0  0  0  0  0  0  0  0  0  0
   -5.0612   -1.0857   -0.7215 O   0  0  0  0  0  0  0  0  0  0  0  0
   -6.1293   -2.0328   -0.8123 C   0  0  0  0  0  0  0  0  0  0  0  0
   -5.9429   -3.1653    0.1867 C   0  0  0  0  0  0  0  0  0  0  0  0
    0.9917   -3.6232   -2.3456 H   0  0  0  0  0  0  0  0  0  0  0  0
    1.2737   -2.2691   -1.2387 H   0  0  0  0  0  0  0  0  0  0  0  0
    0.6594   -1.9627   -2.8629 H   0  0  0  0  0  0  0  0  0  0  0  0
   -1.4529   -3.1922   -2.3021 H   0  0  0  0  0  0  0  0  0  0  0  0
   -0.8607   -3.4410   -0.6445 H   0  0  0  0  0  0  0  0  0  0  0  0
    0.1244   -0.6482    1.1707 H   0  0  0  0  0  0  0  0  0  0  0  0
    2.4232   -1.6478    1.4408 H   0  0  0  0  0  0  0  0  0  0  0  0
    4.2627    1.9676   -1.3606 H   0  0  0  0  0  0  0  0  0  0  0  0
    7.9359   -0.4748    2.1055 H   0  0  0  0  0  0  0  0  0  0  0  0
    6.3659    0.3460    2.0921 H   0  0  0  0  0  0  0  0  0  0  0  0
    7.7680    1.1248    1.3699 H   0  0  0  0  0  0  0  0  0  0  0  0
    8.5355    0.5346   -0.8918 H   0  0  0  0  0  0  0  0  0  0  0  0
    7.9910   -0.9526   -1.6650 H   0  0  0  0  0  0  0  0  0  0  0  0
    9.0096   -1.0331   -0.2191 H   0  0  0  0  0  0  0  0  0  0  0  0
    6.2135   -2.2977   -0.6683 H   0  0  0  0  0  0  0  0  0  0  0  0
    7.1462   -2.5276    0.8169 H   0  0  0  0  0  0  0  0  0  0  0  0
    5.3049   -1.6923    2.1804 H   0  0  0  0  0  0  0  0  0  0  0  0
    4.6141   -2.8573    1.0595 H   0  0  0  0  0  0  0  0  0  0  0  0
   -3.3482    4.2082   -0.4409 H   0  0  0  0  0  0  0  0  0  0  0  0
   -4.8869    6.1326   -0.1636 H   0  0  0  0  0  0  0  0  0  0  0  0
   -6.9471    5.8728    1.1735 H   0  0  0  0  0  0  0  0  0  0  0  0
   -7.4516    3.7085    2.2426 H   0  0  0  0  0  0  0  0  0  0  0  0
   -5.9234    1.8043    1.9728 H   0  0  0  0  0  0  0  0  0  0  0  0
   -7.0794   -1.5156   -0.6406 H   0  0  0  0  0  0  0  0  0  0  0  0
   -6.0837   -2.3970   -1.8403 H   0  0  0  0  0  0  0  0  0  0  0  0
   -4.9255   -3.5435    0.1237 H   0  0  0  0  0  0  0  0  0  0  0  0
   -6.1139   -2.8032    1.1970 H   0  0  0  0  0  0  0  0  0  0  0  0
   -6.6450   -3.9655   -0.0287 H   0  0  0  0  0  0  0  0  0  0  0  0
  1  2  1  0  0  0  0
  2  3  1  0  0  0  0
  3  4  1  0  0  0  0
  4  5  2  0  0  0  0
  4  6  1  0  0  0  0
  6  7  1  0  0  0  0
  7  8  1  0  0  0  0
  8  9  2  0  0  0  0
  9 10  1  0  0  0  0
 10 11  2  0  0  0  0
 11 12  1  0  0  0  0
 12 13  2  0  0  0  0
 13 14  1  0  0  0  0
 14 15  2  0  0  0  0
 15 16  1  0  0  0  0
 16 17  1  0  0  0  0
 17 18  2  0  0  0  0
 13 19  1  0  0  0  0
 19 20  1  0  0  0  0
 20 21  1  0  0  0  0
 20 22  1  0  0  0  0
 20 23  1  0  0  0  0
 23 24  1  0  0  0  0
  7 25  2  0  0  0  0
 25 26  1  0  0  0  0
 26 27  1  0  0  0  0
 27 28  2  0  0  0  0
 28 29  1  0  0  0  0
 29 30  2  0  0  0  0
 30 31  1  0  0  0  0
 31 32  2  0  0  0  0
 26 33  1  0  0  0  0
 33 34  1  0  0  0  0
 34 35  2  0  0  0  0
 34 36  1  0  0  0  0
 36 37  1  0  0  0  0
 37 38  1  0  0  0  0
 33  6  2  0  0  0  0
 17  8  1  0  0  0  0
 32 27  1  0  0  0  0
 15 10  1  0  0  0  0
 24 12  1  0  0  0  0
  1 39  1  0  0  0  0
  1 40  1  0  0  0  0
  1 41  1  0  0  0  0
  2 42  1  0  0  0  0
  2 43  1  0  0  0  0
  9 44  1  0  0  0  0
 11 45  1  0  0  0  0
 14 46  1  0  0  0  0
 21 47  1  0  0  0  0
 21 48  1  0  0  0  0
 21 49  1  0  0  0  0
 22 50  1  0  0  0  0
 22 51  1  0  0  0  0
 22 52  1  0  0  0  0
 23 53  1  0  0  0  0
 23 54  1  0  0  0  0
 24 55  1  0  0  0  0
 24 56  1  0  0  0  0
 28 57  1  0  0  0  0
 29 58  1  0  0  0  0
 30 59  1  0  0  0  0
 31 60  1  0  0  0  0
 32 61  1  0  0  0  0
 37 62  1  0  0  0  0
 37 63  1  0  0  0  0
 38 64  1  0  0  0  0
 38 65  1  0  0  0  0
 38 66  1  0  0  0  0
M  END
