
  xtb     03212211303D
 energy: -128.846352564927 gnorm: 0.000123450949 xtb: 6.4.1 (afa7bdf)
 82 91  0     0  0            999 V2000
    4.9870   -5.5979    1.0463 C   0  0  0  0  0  0  0  0  0  0  0  0
    4.9199   -5.0267   -0.3695 C   0  0  0  0  0  0  0  0  0  0  0  0
    4.8498   -3.5901   -0.3587 N   0  0  0  0  0  0  0  0  0  0  0  0
    3.6953   -2.8472   -0.2696 C   0  0  0  0  0  0  0  0  0  0  0  0
    2.3690   -3.2570   -0.2303 C   0  0  0  0  0  0  0  0  0  0  0  0
    1.3893   -2.2918   -0.1511 C   0  0  0  0  0  0  0  0  0  0  0  0
    1.6861   -0.9177   -0.1074 C   0  0  0  0  0  0  0  0  0  0  0  0
    0.6638    0.1065   -0.0242 C   0  0  0  0  0  0  0  0  0  0  0  0
   -0.6633   -0.0844    0.0240 C   0  0  0  0  0  0  0  0  0  0  0  0
   -1.6876    0.9377    0.1068 C   0  0  0  0  0  0  0  0  0  0  0  0
   -1.3954    2.3128    0.1472 C   0  0  0  0  0  0  0  0  0  0  0  0
   -2.3783    3.2749    0.2260 C   0  0  0  0  0  0  0  0  0  0  0  0
   -3.7034    2.8608    0.2682 C   0  0  0  0  0  0  0  0  0  0  0  0
   -4.0253    1.4841    0.2250 C   0  0  0  0  0  0  0  0  0  0  0  0
   -3.0226    0.5342    0.1463 C   0  0  0  0  0  0  0  0  0  0  0  0
   -5.4592    1.4053    0.2739 C   0  0  0  0  0  0  0  0  0  0  0  0
   -6.3523    0.3503    0.2613 C   0  0  0  0  0  0  0  0  0  0  0  0
   -7.7163    0.6233    0.3148 C   0  0  0  0  0  0  0  0  0  0  0  0
   -8.6913   -0.4374    0.3071 C   0  0  0  0  0  0  0  0  0  0  0  0
   -9.9620   -0.2652    0.3496 N   0  0  0  0  0  0  0  0  0  0  0  0
  -10.6559   -1.4332    0.3331 C   0  0  0  0  0  0  0  0  0  0  0  0
  -12.0421   -1.5624    0.3698 C   0  0  0  0  0  0  0  0  0  0  0  0
  -12.5943   -2.8249    0.3469 C   0  0  0  0  0  0  0  0  0  0  0  0
  -11.7908   -3.9620    0.2880 C   0  0  0  0  0  0  0  0  0  0  0  0
  -10.4137   -3.8599    0.2506 C   0  0  0  0  0  0  0  0  0  0  0  0
   -9.8521   -2.5956    0.2733 C   0  0  0  0  0  0  0  0  0  0  0  0
   -8.1771   -2.1447    0.2382 S   0  0  0  0  0  0  0  0  0  0  0  0
   -8.1687    1.9541    0.3776 C   0  0  0  0  0  0  0  0  0  0  0  0
   -7.2927    3.0146    0.3913 C   0  0  0  0  0  0  0  0  0  0  0  0
   -5.9290    2.7420    0.3432 C   0  0  0  0  0  0  0  0  0  0  0  0
   -4.8606    3.5994    0.3575 N   0  0  0  0  0  0  0  0  0  0  0  0
   -4.9365    5.0358    0.3650 C   0  0  0  0  0  0  0  0  0  0  0  0
   -5.0088    5.6034   -1.0520 C   0  0  0  0  0  0  0  0  0  0  0  0
    3.0225   -0.5186   -0.1439 C   0  0  0  0  0  0  0  0  0  0  0  0
    4.0222   -1.4718   -0.2231 C   0  0  0  0  0  0  0  0  0  0  0  0
    5.4566   -1.3983   -0.2697 C   0  0  0  0  0  0  0  0  0  0  0  0
    6.3542   -0.3472   -0.2540 C   0  0  0  0  0  0  0  0  0  0  0  0
    7.7171   -0.6258   -0.3067 C   0  0  0  0  0  0  0  0  0  0  0  0
    8.6973    0.4300   -0.2968 C   0  0  0  0  0  0  0  0  0  0  0  0
    9.9671    0.2508   -0.3397 N   0  0  0  0  0  0  0  0  0  0  0  0
   10.6674    1.4148   -0.3218 C   0  0  0  0  0  0  0  0  0  0  0  0
   12.0544    1.5362   -0.3589 C   0  0  0  0  0  0  0  0  0  0  0  0
   12.6137    2.7955   -0.3348 C   0  0  0  0  0  0  0  0  0  0  0  0
   11.8166    3.9370   -0.2743 C   0  0  0  0  0  0  0  0  0  0  0  0
   10.4390    3.8426   -0.2363 C   0  0  0  0  0  0  0  0  0  0  0  0
    9.8702    2.5816   -0.2602 C   0  0  0  0  0  0  0  0  0  0  0  0
    8.1926    2.1400   -0.2254 S   0  0  0  0  0  0  0  0  0  0  0  0
    8.1642   -1.9583   -0.3712 C   0  0  0  0  0  0  0  0  0  0  0  0
    7.2839   -3.0151   -0.3879 C   0  0  0  0  0  0  0  0  0  0  0  0
    5.9213   -2.7368   -0.3411 C   0  0  0  0  0  0  0  0  0  0  0  0
    5.8676   -5.2222    1.5623 H   0  0  0  0  0  0  0  0  0  0  0  0
    4.1056   -5.3053    1.6121 H   0  0  0  0  0  0  0  0  0  0  0  0
    5.0372   -6.6829    1.0112 H   0  0  0  0  0  0  0  0  0  0  0  0
    5.8045   -5.3265   -0.9377 H   0  0  0  0  0  0  0  0  0  0  0  0
    4.0375   -5.4116   -0.8879 H   0  0  0  0  0  0  0  0  0  0  0  0
    2.1007   -4.3027   -0.2577 H   0  0  0  0  0  0  0  0  0  0  0  0
    0.3590   -2.6093   -0.1199 H   0  0  0  0  0  0  0  0  0  0  0  0
    1.0553    1.1150   -0.0014 H   0  0  0  0  0  0  0  0  0  0  0  0
   -1.0540   -1.0931    0.0014 H   0  0  0  0  0  0  0  0  0  0  0  0
   -0.3661    2.6334    0.1136 H   0  0  0  0  0  0  0  0  0  0  0  0
   -2.1136    4.3216    0.2507 H   0  0  0  0  0  0  0  0  0  0  0  0
   -3.2742   -0.5158    0.1144 H   0  0  0  0  0  0  0  0  0  0  0  0
   -5.9998   -0.6692    0.2100 H   0  0  0  0  0  0  0  0  0  0  0  0
  -12.6536   -0.6754    0.4154 H   0  0  0  0  0  0  0  0  0  0  0  0
  -13.6678   -2.9382    0.3750 H   0  0  0  0  0  0  0  0  0  0  0  0
  -12.2506   -4.9387    0.2714 H   0  0  0  0  0  0  0  0  0  0  0  0
   -9.7880   -4.7379    0.2050 H   0  0  0  0  0  0  0  0  0  0  0  0
   -9.2333    2.1211    0.4135 H   0  0  0  0  0  0  0  0  0  0  0  0
   -7.6638    4.0273    0.4357 H   0  0  0  0  0  0  0  0  0  0  0  0
   -4.0546    5.4255    0.8807 H   0  0  0  0  0  0  0  0  0  0  0  0
   -5.8211    5.3334    0.9343 H   0  0  0  0  0  0  0  0  0  0  0  0
   -5.0639    6.6882   -1.0193 H   0  0  0  0  0  0  0  0  0  0  0  0
   -4.1271    5.3135   -1.6188 H   0  0  0  0  0  0  0  0  0  0  0  0
   -5.8886    5.2225   -1.5655 H   0  0  0  0  0  0  0  0  0  0  0  0
    3.2774    0.5306   -0.1095 H   0  0  0  0  0  0  0  0  0  0  0  0
    6.0061    0.6739   -0.2013 H   0  0  0  0  0  0  0  0  0  0  0  0
   12.6608    0.6458   -0.4058 H   0  0  0  0  0  0  0  0  0  0  0  0
   13.6879    2.9028   -0.3633 H   0  0  0  0  0  0  0  0  0  0  0  0
   12.2820    4.9111   -0.2568 H   0  0  0  0  0  0  0  0  0  0  0  0
    9.8184    4.7242   -0.1895 H   0  0  0  0  0  0  0  0  0  0  0  0
    9.2282   -2.1296   -0.4060 H   0  0  0  0  0  0  0  0  0  0  0  0
    7.6507   -4.0293   -0.4336 H   0  0  0  0  0  0  0  0  0  0  0  0
  1  2  1  0  0  0  0
  2  3  1  0  0  0  0
  3  4  1  0  0  0  0
  4  5  2  0  0  0  0
  5  6  1  0  0  0  0
  6  7  2  0  0  0  0
  7  8  1  0  0  0  0
  8  9  2  0  0  0  0
  9 10  1  0  0  0  0
 10 11  2  0  0  0  0
 11 12  1  0  0  0  0
 12 13  2  0  0  0  0
 13 14  1  0  0  0  0
 14 15  2  0  0  0  0
 14 16  1  0  0  0  0
 16 17  2  0  0  0  0
 17 18  1  0  0  0  0
 18 19  1  0  0  0  0
 19 20  2  0  0  0  0
 20 21  1  0  0  0  0
 21 22  2  0  0  0  0
 22 23  1  0  0  0  0
 23 24  2  0  0  0  0
 24 25  1  0  0  0  0
 25 26  2  0  0  0  0
 26 27  1  0  0  0  0
 18 28  2  0  0  0  0
 28 29  1  0  0  0  0
 29 30  2  0  0  0  0
 30 31  1  0  0  0  0
 31 32  1  0  0  0  0
 32 33  1  0  0  0  0
  7 34  1  0  0  0  0
 34 35  2  0  0  0  0
 35 36  1  0  0  0  0
 36 37  2  0  0  0  0
 37 38  1  0  0  0  0
 38 39  1  0  0  0  0
 39 40  2  0  0  0  0
 40 41  1  0  0  0  0
 41 42  2  0  0  0  0
 42 43  1  0  0  0  0
 43 44  2  0  0  0  0
 44 45  1  0  0  0  0
 45 46  2  0  0  0  0
 46 47  1  0  0  0  0
 38 48  2  0  0  0  0
 48 49  1  0  0  0  0
 49 50  2  0  0  0  0
 50  3  1  0  0  0  0
 35  4  1  0  0  0  0
 50 36  1  0  0  0  0
 15 10  1  0  0  0  0
 30 16  1  0  0  0  0
 47 39  1  0  0  0  0
 31 13  1  0  0  0  0
 46 41  1  0  0  0  0
 27 19  1  0  0  0  0
 26 21  1  0  0  0  0
  1 51  1  0  0  0  0
  1 52  1  0  0  0  0
  1 53  1  0  0  0  0
  2 54  1  0  0  0  0
  2 55  1  0  0  0  0
  5 56  1  0  0  0  0
  6 57  1  0  0  0  0
  8 58  1  0  0  0  0
  9 59  1  0  0  0  0
 11 60  1  0  0  0  0
 12 61  1  0  0  0  0
 15 62  1  0  0  0  0
 17 63  1  0  0  0  0
 22 64  1  0  0  0  0
 23 65  1  0  0  0  0
 24 66  1  0  0  0  0
 25 67  1  0  0  0  0
 28 68  1  0  0  0  0
 29 69  1  0  0  0  0
 32 70  1  0  0  0  0
 32 71  1  0  0  0  0
 33 72  1  0  0  0  0
 33 73  1  0  0  0  0
 33 74  1  0  0  0  0
 34 75  1  0  0  0  0
 37 76  1  0  0  0  0
 42 77  1  0  0  0  0
 43 78  1  0  0  0  0
 44 79  1  0  0  0  0
 45 80  1  0  0  0  0
 48 81  1  0  0  0  0
 49 82  1  0  0  0  0
M  END
