
  xtb     03212211393D
 energy: -39.398620131312 gnorm: 0.000208568821 xtb: 6.4.1 (afa7bdf)
 24 26  0     0  0            999 V2000
   -1.3260    2.4658    0.1466 N   0  0  0  0  0  0  0  0  0  0  0  0
   -1.6120    1.1326   -0.0298 C   0  0  0  0  0  0  0  0  0  0  0  0
   -2.9522    0.7255   -0.1602 C   0  0  0  0  0  0  0  0  0  0  0  0
   -3.3079   -0.5968   -0.3110 C   0  0  0  0  0  0  0  0  0  0  0  0
   -2.3339   -1.5904   -0.3532 C   0  0  0  0  0  0  0  0  0  0  0  0
   -1.0181   -1.2069   -0.2126 C   0  0  0  0  0  0  0  0  0  0  0  0
   -0.6365    0.1361   -0.0305 C   0  0  0  0  0  0  0  0  0  0  0  0
    0.8206    0.1817    0.1154 C   0  0  0  0  0  0  0  0  0  0  0  0
    1.7070    1.2101    0.3785 C   0  0  0  0  0  0  0  0  0  0  0  0
    3.0669    0.9243    0.4638 C   0  0  0  0  0  0  0  0  0  0  0  0
    3.5473   -0.3628    0.3014 C   0  0  0  0  0  0  0  0  0  0  0  0
    2.6660   -1.4107    0.0612 C   0  0  0  0  0  0  0  0  0  0  0  0
    1.3193   -1.1297   -0.0265 C   0  0  0  0  0  0  0  0  0  0  0  0
    0.1910   -2.0681   -0.2369 C   0  0  0  0  0  0  0  0  0  0  0  0
    0.2431   -3.2670   -0.3938 O   0  0  0  0  0  0  0  0  0  0  0  0
   -2.0680    3.1087   -0.0799 H   0  0  0  0  0  0  0  0  0  0  0  0
   -0.4073    2.7742   -0.1220 H   0  0  0  0  0  0  0  0  0  0  0  0
   -3.7192    1.4878   -0.1442 H   0  0  0  0  0  0  0  0  0  0  0  0
   -4.3507   -0.8590   -0.4085 H   0  0  0  0  0  0  0  0  0  0  0  0
   -2.5891   -2.6292   -0.4893 H   0  0  0  0  0  0  0  0  0  0  0  0
    1.3770    2.2247    0.5434 H   0  0  0  0  0  0  0  0  0  0  0  0
    3.7594    1.7288    0.6666 H   0  0  0  0  0  0  0  0  0  0  0  0
    4.6075   -0.5540    0.3728 H   0  0  0  0  0  0  0  0  0  0  0  0
    3.0155   -2.4259   -0.0514 H   0  0  0  0  0  0  0  0  0  0  0  0
  1  2  1  0  0  0  0
  2  3  2  0  0  0  0
  3  4  1  0  0  0  0
  4  5  2  0  0  0  0
  5  6  1  0  0  0  0
  6  7  2  0  0  0  0
  7  8  1  0  0  0  0
  8  9  2  0  0  0  0
  9 10  1  0  0  0  0
 10 11  2  0  0  0  0
 11 12  1  0  0  0  0
 12 13  2  0  0  0  0
 13 14  1  0  0  0  0
 14 15  2  0  0  0  0
  7  2  1  0  0  0  0
 13  8  1  0  0  0  0
 14  6  1  0  0  0  0
  1 16  1  0  0  0  0
  1 17  1  0  0  0  0
  3 18  1  0  0  0  0
  4 19  1  0  0  0  0
  5 20  1  0  0  0  0
  9 21  1  0  0  0  0
 10 22  1  0  0  0  0
 11 23  1  0  0  0  0
 12 24  1  0  0  0  0
M  END
