
  xtb     03212212223D
 energy: -65.933215403270 gnorm: 0.000178693564 xtb: 6.4.1 (afa7bdf)
 45 47  0     0  0            999 V2000
    6.0080   -1.3426   -1.2288 C   0  0  0  0  0  0  0  0  0  0  0  0
    5.2189   -0.8062   -0.0376 C   0  0  0  0  0  0  0  0  0  0  0  0
    3.9097   -1.4329    0.0346 N   0  0  0  0  0  0  0  0  0  0  0  0
    3.3542   -1.5735    1.3620 C   0  0  0  0  0  0  0  0  0  0  0  0
    2.7489   -0.2657    1.9156 C   0  0  0  0  0  0  0  0  0  0  0  0
    1.7321    0.2093    1.0010 N   0  0  0  0  0  0  0  0  0  0  0  0
    0.4031   -0.0578    1.1888 C   0  0  0  0  0  0  0  0  0  0  0  0
   -0.1497   -0.0793    2.4849 C   0  0  0  0  0  0  0  0  0  0  0  0
   -1.4859   -0.2989    2.6879 C   0  0  0  0  0  0  0  0  0  0  0  0
   -2.3672   -0.4637    1.6076 C   0  0  0  0  0  0  0  0  0  0  0  0
   -3.6775   -0.7249    1.9313 N   0  0  0  0  0  0  0  0  0  0  0  0
   -4.6432   -0.5850    1.1784 N   0  0  0  0  0  0  0  0  0  0  0  0
   -4.7483    0.0904   -0.0081 C   0  0  0  0  0  0  0  0  0  0  0  0
   -4.4365    1.4589   -0.0882 C   0  0  0  0  0  0  0  0  0  0  0  0
   -4.7472    2.1784   -1.2167 C   0  0  0  0  0  0  0  0  0  0  0  0
   -5.3638    1.5505   -2.3035 C   0  0  0  0  0  0  0  0  0  0  0  0
   -5.6573    2.2843   -3.4696 C   0  0  0  0  0  0  0  0  0  0  0  0
   -5.8902    2.8824   -4.4215 N   0  0  0  0  0  0  0  0  0  0  0  0
   -5.6868    0.1910   -2.2265 C   0  0  0  0  0  0  0  0  0  0  0  0
   -5.4001   -0.5238   -1.0889 C   0  0  0  0  0  0  0  0  0  0  0  0
   -1.8256   -0.4506    0.3134 C   0  0  0  0  0  0  0  0  0  0  0  0
   -0.4807   -0.2671    0.1135 C   0  0  0  0  0  0  0  0  0  0  0  0
    2.3035    0.4271   -0.3102 C   0  0  0  0  0  0  0  0  0  0  0  0
    2.9174   -0.8735   -0.8621 C   0  0  0  0  0  0  0  0  0  0  0  0
    7.0206   -0.9482   -1.2097 H   0  0  0  0  0  0  0  0  0  0  0  0
    6.0494   -2.4270   -1.1830 H   0  0  0  0  0  0  0  0  0  0  0  0
    5.5470   -1.0558   -2.1700 H   0  0  0  0  0  0  0  0  0  0  0  0
    5.7594   -1.0566    0.8781 H   0  0  0  0  0  0  0  0  0  0  0  0
    5.1646    0.2919   -0.1030 H   0  0  0  0  0  0  0  0  0  0  0  0
    4.1264   -1.9429    2.0387 H   0  0  0  0  0  0  0  0  0  0  0  0
    2.5559   -2.3225    1.3080 H   0  0  0  0  0  0  0  0  0  0  0  0
    3.5282    0.4994    2.0022 H   0  0  0  0  0  0  0  0  0  0  0  0
    2.3338   -0.4526    2.9027 H   0  0  0  0  0  0  0  0  0  0  0  0
    0.4794    0.0991    3.3429 H   0  0  0  0  0  0  0  0  0  0  0  0
   -1.8960   -0.3081    3.6858 H   0  0  0  0  0  0  0  0  0  0  0  0
   -3.9623    1.9380    0.7567 H   0  0  0  0  0  0  0  0  0  0  0  0
   -4.5062    3.2300   -1.2759 H   0  0  0  0  0  0  0  0  0  0  0  0
   -6.1681   -0.2886   -3.0665 H   0  0  0  0  0  0  0  0  0  0  0  0
   -5.6454   -1.5727   -1.0191 H   0  0  0  0  0  0  0  0  0  0  0  0
   -2.4628   -0.6439   -0.5378 H   0  0  0  0  0  0  0  0  0  0  0  0
   -0.1089   -0.3140   -0.8977 H   0  0  0  0  0  0  0  0  0  0  0  0
    1.5586    0.8329   -0.9918 H   0  0  0  0  0  0  0  0  0  0  0  0
    3.0932    1.1793   -0.1974 H   0  0  0  0  0  0  0  0  0  0  0  0
    2.1252   -1.6191   -0.9853 H   0  0  0  0  0  0  0  0  0  0  0  0
    3.3721   -0.6891   -1.8351 H   0  0  0  0  0  0  0  0  0  0  0  0
  1  2  1  0  0  0  0
  2  3  1  0  0  0  0
  3  4  1  0  0  0  0
  4  5  1  0  0  0  0
  5  6  1  0  0  0  0
  6  7  1  0  0  0  0
  7  8  2  0  0  0  0
  8  9  1  0  0  0  0
  9 10  2  0  0  0  0
 10 11  1  0  0  0  0
 11 12  2  0  0  0  0
 12 13  1  0  0  0  0
 13 14  2  0  0  0  0
 14 15  1  0  0  0  0
 15 16  2  0  0  0  0
 16 17  1  0  0  0  0
 17 18  3  0  0  0  0
 16 19  1  0  0  0  0
 19 20  2  0  0  0  0
 10 21  1  0  0  0  0
 21 22  2  0  0  0  0
  6 23  1  0  0  0  0
 23 24  1  0  0  0  0
 24  3  1  0  0  0  0
 22  7  1  0  0  0  0
 20 13  1  0  0  0  0
  1 25  1  0  0  0  0
  1 26  1  0  0  0  0
  1 27  1  0  0  0  0
  2 28  1  0  0  0  0
  2 29  1  0  0  0  0
  4 30  1  0  0  0  0
  4 31  1  0  0  0  0
  5 32  1  0  0  0  0
  5 33  1  0  0  0  0
  8 34  1  0  0  0  0
  9 35  1  0  0  0  0
 14 36  1  0  0  0  0
 15 37  1  0  0  0  0
 19 38  1  0  0  0  0
 20 39  1  0  0  0  0
 21 40  1  0  0  0  0
 22 41  1  0  0  0  0
 23 42  1  0  0  0  0
 23 43  1  0  0  0  0
 24 44  1  0  0  0  0
 24 45  1  0  0  0  0
M  END
