
  xtb     03212211153D
 energy: -114.779791561189 gnorm: 0.000185439669 xtb: 6.4.1 (afa7bdf)
 66 69  0     0  0            999 V2000
   -3.2499    0.6889   -5.5865 C   0  0  0  0  0  0  0  0  0  0  0  0
   -1.9395    0.3769   -4.8897 C   0  0  0  0  0  0  0  0  0  0  0  0
   -2.2180    0.0555   -3.5268 O   0  0  0  0  0  0  0  0  0  0  0  0
   -1.1565   -0.1416   -2.7356 C   0  0  0  0  0  0  0  0  0  0  0  0
   -0.0162   -0.0462   -3.1228 O   0  0  0  0  0  0  0  0  0  0  0  0
   -1.5835   -0.4751   -1.3727 C   0  0  0  0  0  0  0  0  0  0  0  0
   -0.9708   -0.1894   -0.1159 C   0  0  0  0  0  0  0  0  0  0  0  0
    0.2761    0.4957    0.1818 C   0  0  0  0  0  0  0  0  0  0  0  0
    1.4030    0.3544   -0.5622 C   0  0  0  0  0  0  0  0  0  0  0  0
    2.5954    1.0457   -0.2078 C   0  0  0  0  0  0  0  0  0  0  0  0
    3.7958    0.9528   -0.9280 C   0  0  0  0  0  0  0  0  0  0  0  0
    4.9094    1.6350   -0.5196 C   0  0  0  0  0  0  0  0  0  0  0  0
    4.8750    2.4426    0.6332 C   0  0  0  0  0  0  0  0  0  0  0  0
    6.0292    3.0661    0.9358 O   0  0  0  0  0  0  0  0  0  0  0  0
    6.1017    3.8678    2.1073 C   0  0  0  0  0  0  0  0  0  0  0  0
    5.8686    3.1308    3.3991 C   0  0  0  0  0  0  0  0  0  0  0  0
    6.3376    1.9272    3.7093 C   0  0  0  0  0  0  0  0  0  0  0  0
    7.1858    1.0976    2.7946 C   0  0  0  0  0  0  0  0  0  0  0  0
    6.0194    1.2856    5.0253 C   0  0  0  0  0  0  0  0  0  0  0  0
    3.6969    2.5505    1.3579 C   0  0  0  0  0  0  0  0  0  0  0  0
    2.5672    1.8574    0.9363 C   0  0  0  0  0  0  0  0  0  0  0  0
    1.4417    1.9992    1.6703 O   0  0  0  0  0  0  0  0  0  0  0  0
    0.2638    1.3721    1.3601 C   0  0  0  0  0  0  0  0  0  0  0  0
   -0.6877    1.6060    2.0594 O   0  0  0  0  0  0  0  0  0  0  0  0
   -1.7579   -0.5928    0.8635 N   0  0  0  0  0  0  0  0  0  0  0  0
   -2.8417   -1.1210    0.3151 N   0  0  0  0  0  0  0  0  0  0  0  0
   -3.8454   -1.6575    1.1318 C   0  0  0  0  0  0  0  0  0  0  0  0
   -4.0750   -1.0696    2.3711 C   0  0  0  0  0  0  0  0  0  0  0  0
   -5.0667   -1.5796    3.1878 C   0  0  0  0  0  0  0  0  0  0  0  0
   -5.8285   -2.6639    2.7833 C   0  0  0  0  0  0  0  0  0  0  0  0
   -5.5707   -3.2505    1.5542 C   0  0  0  0  0  0  0  0  0  0  0  0
   -6.4907   -4.6194    1.0457 Cl  0  0  0  0  0  0  0  0  0  0  0  0
   -4.5749   -2.7661    0.7233 C   0  0  0  0  0  0  0  0  0  0  0  0
   -2.7952   -1.0710   -1.0375 C   0  0  0  0  0  0  0  0  0  0  0  0
   -3.9151   -1.4743   -1.9213 C   0  0  0  0  0  0  0  0  0  0  0  0
   -5.0318   -1.0361   -1.8288 O   0  0  0  0  0  0  0  0  0  0  0  0
   -3.5149   -2.3706   -2.8222 O   0  0  0  0  0  0  0  0  0  0  0  0
   -4.4948   -2.8153   -3.7643 C   0  0  0  0  0  0  0  0  0  0  0  0
   -5.3609   -3.9254   -3.1858 C   0  0  0  0  0  0  0  0  0  0  0  0
   -3.7533    1.5096   -5.0826 H   0  0  0  0  0  0  0  0  0  0  0  0
   -3.9022   -0.1800   -5.5689 H   0  0  0  0  0  0  0  0  0  0  0  0
   -3.0569    0.9677   -6.6184 H   0  0  0  0  0  0  0  0  0  0  0  0
   -1.4301   -0.4751   -5.3551 H   0  0  0  0  0  0  0  0  0  0  0  0
   -1.2583    1.2352   -4.9164 H   0  0  0  0  0  0  0  0  0  0  0  0
    1.4098   -0.2805   -1.4346 H   0  0  0  0  0  0  0  0  0  0  0  0
    3.8218    0.3354   -1.8125 H   0  0  0  0  0  0  0  0  0  0  0  0
    5.8375    1.5734   -1.0649 H   0  0  0  0  0  0  0  0  0  0  0  0
    5.3943    4.7024    2.0246 H   0  0  0  0  0  0  0  0  0  0  0  0
    7.1180    4.2781    2.0771 H   0  0  0  0  0  0  0  0  0  0  0  0
    5.2653    3.6658    4.1197 H   0  0  0  0  0  0  0  0  0  0  0  0
    7.9360    0.5570    3.3687 H   0  0  0  0  0  0  0  0  0  0  0  0
    6.5654    0.3628    2.2797 H   0  0  0  0  0  0  0  0  0  0  0  0
    7.6810    1.7053    2.0434 H   0  0  0  0  0  0  0  0  0  0  0  0
    5.5448    0.3188    4.8623 H   0  0  0  0  0  0  0  0  0  0  0  0
    5.3547    1.9057    5.6205 H   0  0  0  0  0  0  0  0  0  0  0  0
    6.9354    1.1136    5.5897 H   0  0  0  0  0  0  0  0  0  0  0  0
    3.6201    3.1507    2.2483 H   0  0  0  0  0  0  0  0  0  0  0  0
   -3.4688   -0.2277    2.6655 H   0  0  0  0  0  0  0  0  0  0  0  0
   -5.2558   -1.1255    4.1478 H   0  0  0  0  0  0  0  0  0  0  0  0
   -6.6093   -3.0574    3.4145 H   0  0  0  0  0  0  0  0  0  0  0  0
   -4.3661   -3.2563   -0.2138 H   0  0  0  0  0  0  0  0  0  0  0  0
   -3.9196   -3.1696   -4.6220 H   0  0  0  0  0  0  0  0  0  0  0  0
   -5.1175   -1.9623   -4.0522 H   0  0  0  0  0  0  0  0  0  0  0  0
   -4.7394   -4.7464   -2.8351 H   0  0  0  0  0  0  0  0  0  0  0  0
   -5.9533   -3.5458   -2.3566 H   0  0  0  0  0  0  0  0  0  0  0  0
   -6.0343   -4.2964   -3.9530 H   0  0  0  0  0  0  0  0  0  0  0  0
  1  2  1  0  0  0  0
  2  3  1  0  0  0  0
  3  4  1  0  0  0  0
  4  5  2  0  0  0  0
  4  6  1  0  0  0  0
  6  7  1  0  0  0  0
  7  8  1  0  0  0  0
  8  9  2  0  0  0  0
  9 10  1  0  0  0  0
 10 11  2  0  0  0  0
 11 12  1  0  0  0  0
 12 13  2  0  0  0  0
 13 14  1  0  0  0  0
 14 15  1  0  0  0  0
 15 16  1  0  0  0  0
 16 17  2  0  0  0  0
 17 18  1  0  0  0  0
 17 19  1  0  0  0  0
 13 20  1  0  0  0  0
 20 21  2  0  0  0  0
 21 22  1  0  0  0  0
 22 23  1  0  0  0  0
 23 24  2  0  0  0  0
  7 25  2  0  0  0  0
 25 26  1  0  0  0  0
 26 27  1  0  0  0  0
 27 28  2  0  0  0  0
 28 29  1  0  0  0  0
 29 30  2  0  0  0  0
 30 31  1  0  0  0  0
 31 32  1  0  0  0  0
 31 33  2  0  0  0  0
 26 34  1  0  0  0  0
 34 35  1  0  0  0  0
 35 36  2  0  0  0  0
 35 37  1  0  0  0  0
 37 38  1  0  0  0  0
 38 39  1  0  0  0  0
 34  6  2  0  0  0  0
 23  8  1  0  0  0  0
 33 27  1  0  0  0  0
 21 10  1  0  0  0  0
  1 40  1  0  0  0  0
  1 41  1  0  0  0  0
  1 42  1  0  0  0  0
  2 43  1  0  0  0  0
  2 44  1  0  0  0  0
  9 45  1  0  0  0  0
 11 46  1  0  0  0  0
 12 47  1  0  0  0  0
 15 48  1  0  0  0  0
 15 49  1  0  0  0  0
 16 50  1  0  0  0  0
 18 51  1  0  0  0  0
 18 52  1  0  0  0  0
 18 53  1  0  0  0  0
 19 54  1  0  0  0  0
 19 55  1  0  0  0  0
 19 56  1  0  0  0  0
 20 57  1  0  0  0  0
 28 58  1  0  0  0  0
 29 59  1  0  0  0  0
 30 60  1  0  0  0  0
 33 61  1  0  0  0  0
 38 62  1  0  0  0  0
 38 63  1  0  0  0  0
 39 64  1  0  0  0  0
 39 65  1  0  0  0  0
 39 66  1  0  0  0  0
M  END
