
  xtb     03212212243D
 energy: -50.412595971921 gnorm: 0.000257132531 xtb: 6.4.1 (afa7bdf)
 27 29  0     0  0            999 V2000
   -2.9830    0.0543    3.2517 N   0  0  0  0  0  0  0  0  0  0  0  0
   -2.1054    0.0336    2.5111 C   0  0  0  0  0  0  0  0  0  0  0  0
   -0.9889    0.0059    1.6572 C   0  0  0  0  0  0  0  0  0  0  0  0
   -1.0515    0.0307    0.2685 C   0  0  0  0  0  0  0  0  0  0  0  0
   -2.2902    0.0881   -0.4750 C   0  0  0  0  0  0  0  0  0  0  0  0
   -3.5917    0.1214   -0.0391 C   0  0  0  0  0  0  0  0  0  0  0  0
   -4.5322    0.1754   -1.0825 C   0  0  0  0  0  0  0  0  0  0  0  0
   -3.9552    0.1835   -2.3137 C   0  0  0  0  0  0  0  0  0  0  0  0
   -2.2493    0.1251   -2.2249 S   0  0  0  0  0  0  0  0  0  0  0  0
    0.1612   -0.0017   -0.4614 C   0  0  0  0  0  0  0  0  0  0  0  0
    1.3753   -0.0565    0.1744 C   0  0  0  0  0  0  0  0  0  0  0  0
    2.6290   -0.0910   -0.5372 C   0  0  0  0  0  0  0  0  0  0  0  0
    2.8459   -0.0762   -1.8934 C   0  0  0  0  0  0  0  0  0  0  0  0
    4.2080   -0.1212   -2.2357 C   0  0  0  0  0  0  0  0  0  0  0  0
    5.0231   -0.1700   -1.1477 C   0  0  0  0  0  0  0  0  0  0  0  0
    4.1458   -0.1620    0.3212 S   0  0  0  0  0  0  0  0  0  0  0  0
    1.3994   -0.0794    1.5302 N   0  0  0  0  0  0  0  0  0  0  0  0
    0.2834   -0.0521    2.3626 C   0  0  0  0  0  0  0  0  0  0  0  0
    0.4403   -0.0773    3.5648 O   0  0  0  0  0  0  0  0  0  0  0  0
   -3.8744    0.1077    0.9956 H   0  0  0  0  0  0  0  0  0  0  0  0
   -5.5946    0.2069   -0.9217 H   0  0  0  0  0  0  0  0  0  0  0  0
   -4.4298    0.2204   -3.2743 H   0  0  0  0  0  0  0  0  0  0  0  0
    0.1235    0.0170   -1.5360 H   0  0  0  0  0  0  0  0  0  0  0  0
    2.0591   -0.0344   -2.6234 H   0  0  0  0  0  0  0  0  0  0  0  0
    4.5690   -0.1176   -3.2482 H   0  0  0  0  0  0  0  0  0  0  0  0
    6.0938   -0.2105   -1.1176 H   0  0  0  0  0  0  0  0  0  0  0  0
    2.2893   -0.1198    2.0151 H   0  0  0  0  0  0  0  0  0  0  0  0
  1  2  3  0  0  0  0
  2  3  1  0  0  0  0
  3  4  2  0  0  0  0
  4  5  1  0  0  0  0
  5  6  2  0  0  0  0
  6  7  1  0  0  0  0
  7  8  2  0  0  0  0
  8  9  1  0  0  0  0
  4 10  1  0  0  0  0
 10 11  2  0  0  0  0
 11 12  1  0  0  0  0
 12 13  2  0  0  0  0
 13 14  1  0  0  0  0
 14 15  2  0  0  0  0
 15 16  1  0  0  0  0
 11 17  1  0  0  0  0
 17 18  1  0  0  0  0
 18 19  2  0  0  0  0
 18  3  1  0  0  0  0
  9  5  1  0  0  0  0
 16 12  1  0  0  0  0
  6 20  1  0  0  0  0
  7 21  1  0  0  0  0
  8 22  1  0  0  0  0
 10 23  1  0  0  0  0
 13 24  1  0  0  0  0
 14 25  1  0  0  0  0
 15 26  1  0  0  0  0
 17 27  1  0  0  0  0
M  END
