
  xtb     03212211013D
 energy: -155.650123402988 gnorm: 0.000177748868 xtb: 6.4.1 (afa7bdf)
 96102  0     0  0            999 V2000
   -9.8788   -0.1489    1.9904 C   0  0  0  0  0  0  0  0  0  0  0  0
   -9.0747    0.1181    0.8676 O   0  0  0  0  0  0  0  0  0  0  0  0
   -7.7205   -0.0424    0.9835 C   0  0  0  0  0  0  0  0  0  0  0  0
   -7.0477   -0.2312    2.1769 C   0  0  0  0  0  0  0  0  0  0  0  0
   -5.6651   -0.3492    2.1988 C   0  0  0  0  0  0  0  0  0  0  0  0
   -4.9370   -0.2816    1.0255 C   0  0  0  0  0  0  0  0  0  0  0  0
   -3.4582   -0.4067    1.0398 C   0  0  0  0  0  0  0  0  0  0  0  0
   -2.8976   -1.5915    0.5918 C   0  0  0  0  0  0  0  0  0  0  0  0
   -1.5919   -1.8665    0.5435 N   0  0  0  0  0  0  0  0  0  0  0  0
   -1.4121   -3.1109    0.0967 C   0  0  0  0  0  0  0  0  0  0  0  0
   -0.2103   -3.7515   -0.1130 C   0  0  0  0  0  0  0  0  0  0  0  0
    1.0846   -3.2798    0.0900 C   0  0  0  0  0  0  0  0  0  0  0  0
    2.2784   -3.9958   -0.1845 C   0  0  0  0  0  0  0  0  0  0  0  0
    3.3369   -3.1945    0.1440 C   0  0  0  0  0  0  0  0  0  0  0  0
    2.8137   -1.9712    0.6348 C   0  0  0  0  0  0  0  0  0  0  0  0
    1.4553   -2.0648    0.5793 N   0  0  0  0  0  0  0  0  0  0  0  0
    3.5388   -0.8639    1.0918 C   0  0  0  0  0  0  0  0  0  0  0  0
    5.0173   -0.9876    1.0912 C   0  0  0  0  0  0  0  0  0  0  0  0
    5.6545   -1.8223    1.9900 C   0  0  0  0  0  0  0  0  0  0  0  0
    7.0380   -1.9372    1.9879 C   0  0  0  0  0  0  0  0  0  0  0  0
    7.8037   -1.2219    1.0847 C   0  0  0  0  0  0  0  0  0  0  0  0
    9.1629   -1.2608    0.9979 O   0  0  0  0  0  0  0  0  0  0  0  0
    9.8627   -2.0996    1.8808 C   0  0  0  0  0  0  0  0  0  0  0  0
    7.1599   -0.3715    0.1569 C   0  0  0  0  0  0  0  0  0  0  0  0
    7.9881    0.2885   -0.6989 O   0  0  0  0  0  0  0  0  0  0  0  0
    7.4277    1.1782   -1.6359 C   0  0  0  0  0  0  0  0  0  0  0  0
    8.5788    1.7898   -2.4278 C   0  0  0  0  0  0  0  0  0  0  0  0
    8.0778    2.7966   -3.4558 C   0  0  0  0  0  0  0  0  0  0  0  0
    9.2052    3.3838   -4.2676 C   0  0  0  0  0  0  0  0  0  0  0  0
   10.3597    3.0647   -4.2139 O   0  0  0  0  0  0  0  0  0  0  0  0
    8.7600    4.3405   -5.0964 O   0  0  0  0  0  0  0  0  0  0  0  0
    5.7815   -0.2674    0.1731 C   0  0  0  0  0  0  0  0  0  0  0  0
    2.9765    0.3088    1.5708 C   0  0  0  0  0  0  0  0  0  0  0  0
    1.6699    0.5704    1.6510 N   0  0  0  0  0  0  0  0  0  0  0  0
    1.4856    1.7724    2.2011 C   0  0  0  0  0  0  0  0  0  0  0  0
    0.2832    2.4040    2.4325 C   0  0  0  0  0  0  0  0  0  0  0  0
   -1.0101    1.9578    2.1692 C   0  0  0  0  0  0  0  0  0  0  0  0
   -2.2026    2.6879    2.4085 C   0  0  0  0  0  0  0  0  0  0  0  0
   -3.2591    1.9120    2.0172 C   0  0  0  0  0  0  0  0  0  0  0  0
   -2.7360    0.6856    1.5359 C   0  0  0  0  0  0  0  0  0  0  0  0
   -1.3794    0.7586    1.6413 N   0  0  0  0  0  0  0  0  0  0  0  0
    2.7935    2.4494    2.5793 C   0  0  0  0  0  0  0  0  0  0  0  0
    3.8366    1.4394    2.1116 C   0  0  0  0  0  0  0  0  0  0  0  0
   -2.7233   -3.8243   -0.1925 C   0  0  0  0  0  0  0  0  0  0  0  0
   -3.7610   -2.7530    0.1277 C   0  0  0  0  0  0  0  0  0  0  0  0
   -5.6084   -0.0936   -0.1812 C   0  0  0  0  0  0  0  0  0  0  0  0
   -6.9867    0.0167   -0.2220 C   0  0  0  0  0  0  0  0  0  0  0  0
   -7.7205    0.1661   -1.3580 O   0  0  0  0  0  0  0  0  0  0  0  0
   -7.0615    0.4770   -2.5656 C   0  0  0  0  0  0  0  0  0  0  0  0
   -8.1292    0.7792   -3.6140 C   0  0  0  0  0  0  0  0  0  0  0  0
   -8.9887    1.9825   -3.2127 C   0  0  0  0  0  0  0  0  0  0  0  0
   -9.7767    1.6235   -1.9701 C   0  0  0  0  0  0  0  0  0  0  0  0
  -10.6532    0.8038   -1.9338 O   0  0  0  0  0  0  0  0  0  0  0  0
   -9.3997    2.3403   -0.9100 O   0  0  0  0  0  0  0  0  0  0  0  0
   -9.6869   -1.1474    2.3938 H   0  0  0  0  0  0  0  0  0  0  0  0
   -9.7308    0.5956    2.7811 H   0  0  0  0  0  0  0  0  0  0  0  0
  -10.9069   -0.0991    1.6335 H   0  0  0  0  0  0  0  0  0  0  0  0
   -7.5907   -0.2794    3.1074 H   0  0  0  0  0  0  0  0  0  0  0  0
   -5.1553   -0.4940    3.1391 H   0  0  0  0  0  0  0  0  0  0  0  0
   -0.2735   -4.7619   -0.4945 H   0  0  0  0  0  0  0  0  0  0  0  0
    2.3155   -4.9907   -0.5842 H   0  0  0  0  0  0  0  0  0  0  0  0
    4.3808   -3.4223    0.0551 H   0  0  0  0  0  0  0  0  0  0  0  0
    0.8349   -1.3228    0.8692 H   0  0  0  0  0  0  0  0  0  0  0  0
    5.0723   -2.3870    2.7023 H   0  0  0  0  0  0  0  0  0  0  0  0
    7.5071   -2.5940    2.7030 H   0  0  0  0  0  0  0  0  0  0  0  0
   10.9150   -1.9770    1.6295 H   0  0  0  0  0  0  0  0  0  0  0  0
    9.7049   -1.8098    2.9254 H   0  0  0  0  0  0  0  0  0  0  0  0
    9.5803   -3.1499    1.7503 H   0  0  0  0  0  0  0  0  0  0  0  0
    6.8612    1.9690   -1.1213 H   0  0  0  0  0  0  0  0  0  0  0  0
    6.7434    0.6441   -2.3117 H   0  0  0  0  0  0  0  0  0  0  0  0
    9.2660    2.2754   -1.7347 H   0  0  0  0  0  0  0  0  0  0  0  0
    9.1312    0.9935   -2.9267 H   0  0  0  0  0  0  0  0  0  0  0  0
    7.5458    3.6209   -2.9759 H   0  0  0  0  0  0  0  0  0  0  0  0
    7.3815    2.3254   -4.1540 H   0  0  0  0  0  0  0  0  0  0  0  0
    9.4937    4.7047   -5.6165 H   0  0  0  0  0  0  0  0  0  0  0  0
    5.2704    0.3611   -0.5394 H   0  0  0  0  0  0  0  0  0  0  0  0
    0.3445    3.3884    2.8771 H   0  0  0  0  0  0  0  0  0  0  0  0
   -2.2403    3.6771    2.8222 H   0  0  0  0  0  0  0  0  0  0  0  0
   -4.3015    2.1605    2.0551 H   0  0  0  0  0  0  0  0  0  0  0  0
   -0.7594    0.0123    1.3615 H   0  0  0  0  0  0  0  0  0  0  0  0
    2.8305    2.6221    3.6562 H   0  0  0  0  0  0  0  0  0  0  0  0
    2.8849    3.4150    2.0802 H   0  0  0  0  0  0  0  0  0  0  0  0
    4.4841    1.8401    1.3317 H   0  0  0  0  0  0  0  0  0  0  0  0
    4.4758    1.0762    2.9176 H   0  0  0  0  0  0  0  0  0  0  0  0
   -2.8209   -4.7060    0.4430 H   0  0  0  0  0  0  0  0  0  0  0  0
   -2.7606   -4.1528   -1.2320 H   0  0  0  0  0  0  0  0  0  0  0  0
   -4.3530   -2.4715   -0.7433 H   0  0  0  0  0  0  0  0  0  0  0  0
   -4.4541   -3.0484    0.9167 H   0  0  0  0  0  0  0  0  0  0  0  0
   -5.0290   -0.0336   -1.0892 H   0  0  0  0  0  0  0  0  0  0  0  0
   -6.4084    1.3501   -2.4250 H   0  0  0  0  0  0  0  0  0  0  0  0
   -6.4477   -0.3727   -2.8983 H   0  0  0  0  0  0  0  0  0  0  0  0
   -8.7780   -0.0919   -3.7155 H   0  0  0  0  0  0  0  0  0  0  0  0
   -7.6394    0.9719   -4.5694 H   0  0  0  0  0  0  0  0  0  0  0  0
   -9.6887    2.2083   -4.0179 H   0  0  0  0  0  0  0  0  0  0  0  0
   -8.3677    2.8538   -3.0071 H   0  0  0  0  0  0  0  0  0  0  0  0
   -9.7716    1.9409   -0.1052 H   0  0  0  0  0  0  0  0  0  0  0  0
  1  2  1  0  0  0  0
  2  3  1  0  0  0  0
  3  4  2  0  0  0  0
  4  5  1  0  0  0  0
  5  6  2  0  0  0  0
  6  7  1  0  0  0  0
  7  8  1  0  0  0  0
  8  9  2  0  0  0  0
  9 10  1  0  0  0  0
 10 11  2  0  0  0  0
 11 12  1  0  0  0  0
 12 13  2  0  0  0  0
 13 14  1  0  0  0  0
 14 15  2  0  0  0  0
 15 16  1  0  0  0  0
 15 17  1  0  0  0  0
 17 18  1  0  0  0  0
 18 19  2  0  0  0  0
 19 20  1  0  0  0  0
 20 21  2  0  0  0  0
 21 22  1  0  0  0  0
 22 23  1  0  0  0  0
 21 24  1  0  0  0  0
 24 25  1  0  0  0  0
 25 26  1  0  0  0  0
 26 27  1  0  0  0  0
 27 28  1  0  0  0  0
 28 29  1  0  0  0  0
 29 30  2  0  0  0  0
 29 31  1  0  0  0  0
 24 32  2  0  0  0  0
 17 33  2  0  0  0  0
 33 34  1  0  0  0  0
 34 35  2  0  0  0  0
 35 36  1  0  0  0  0
 36 37  2  0  0  0  0
 37 38  1  0  0  0  0
 38 39  2  0  0  0  0
 39 40  1  0  0  0  0
 40 41  1  0  0  0  0
 35 42  1  0  0  0  0
 42 43  1  0  0  0  0
 10 44  1  0  0  0  0
 44 45  1  0  0  0  0
  6 46  1  0  0  0  0
 46 47  2  0  0  0  0
 47 48  1  0  0  0  0
 48 49  1  0  0  0  0
 49 50  1  0  0  0  0
 50 51  1  0  0  0  0
 51 52  1  0  0  0  0
 52 53  2  0  0  0  0
 52 54  1  0  0  0  0
 47  3  1  0  0  0  0
 40  7  2  0  0  0  0
 45  8  1  0  0  0  0
 16 12  1  0  0  0  0
 32 18  1  0  0  0  0
 43 33  1  0  0  0  0
 41 37  1  0  0  0  0
  1 55  1  0  0  0  0
  1 56  1  0  0  0  0
  1 57  1  0  0  0  0
  4 58  1  0  0  0  0
  5 59  1  0  0  0  0
 11 60  1  0  0  0  0
 13 61  1  0  0  0  0
 14 62  1  0  0  0  0
 16 63  1  0  0  0  0
 19 64  1  0  0  0  0
 20 65  1  0  0  0  0
 23 66  1  0  0  0  0
 23 67  1  0  0  0  0
 23 68  1  0  0  0  0
 26 69  1  0  0  0  0
 26 70  1  0  0  0  0
 27 71  1  0  0  0  0
 27 72  1  0  0  0  0
 28 73  1  0  0  0  0
 28 74  1  0  0  0  0
 31 75  1  0  0  0  0
 32 76  1  0  0  0  0
 36 77  1  0  0  0  0
 38 78  1  0  0  0  0
 39 79  1  0  0  0  0
 41 80  1  0  0  0  0
 42 81  1  0  0  0  0
 42 82  1  0  0  0  0
 43 83  1  0  0  0  0
 43 84  1  0  0  0  0
 44 85  1  0  0  0  0
 44 86  1  0  0  0  0
 45 87  1  0  0  0  0
 45 88  1  0  0  0  0
 46 89  1  0  0  0  0
 49 90  1  0  0  0  0
 49 91  1  0  0  0  0
 50 92  1  0  0  0  0
 50 93  1  0  0  0  0
 51 94  1  0  0  0  0
 51 95  1  0  0  0  0
 54 96  1  0  0  0  0
M  END
