
  xtb     03212210513D
 energy: -57.144587341088 gnorm: 0.000381019714 xtb: 6.4.1 (afa7bdf)
 39 40  0     0  0            999 V2000
    0.4223   -3.2502    0.6716 C   0  0  0  0  0  0  0  0  0  0  0  0
   -0.6778   -2.2661    0.4276 C   0  0  0  0  0  0  0  0  0  0  0  0
   -2.0047   -2.6540    0.4294 C   0  0  0  0  0  0  0  0  0  0  0  0
   -3.0313   -1.7502    0.1832 C   0  0  0  0  0  0  0  0  0  0  0  0
   -4.3378   -2.1527    0.2016 O   0  0  0  0  0  0  0  0  0  0  0  0
   -2.7394   -0.4083   -0.0771 C   0  0  0  0  0  0  0  0  0  0  0  0
   -3.8520    0.5836   -0.3181 C   0  0  0  0  0  0  0  0  0  0  0  0
   -3.8675    1.6533    0.7755 C   0  0  0  0  0  0  0  0  0  0  0  0
   -3.7252    1.2237   -1.7016 C   0  0  0  0  0  0  0  0  0  0  0  0
   -1.4106   -0.0260   -0.0994 C   0  0  0  0  0  0  0  0  0  0  0  0
   -0.3725   -0.9271    0.1425 C   0  0  0  0  0  0  0  0  0  0  0  0
    0.9477   -0.5345    0.2051 N   0  0  0  0  0  0  0  0  0  0  0  0
    1.4577    0.3218   -0.5809 C   0  0  0  0  0  0  0  0  0  0  0  0
    2.8282    0.7653   -0.4336 C   0  0  0  0  0  0  0  0  0  0  0  0
    3.3818    1.6662   -1.3462 C   0  0  0  0  0  0  0  0  0  0  0  0
    4.6844    2.0947   -1.2158 C   0  0  0  0  0  0  0  0  0  0  0  0
    5.4680    1.6285   -0.1622 C   0  0  0  0  0  0  0  0  0  0  0  0
    6.7468    2.0735   -0.0671 O   0  0  0  0  0  0  0  0  0  0  0  0
    4.9258    0.7302    0.7543 C   0  0  0  0  0  0  0  0  0  0  0  0
    3.6223    0.3056    0.6190 C   0  0  0  0  0  0  0  0  0  0  0  0
    0.8121   -3.6221   -0.2770 H   0  0  0  0  0  0  0  0  0  0  0  0
    1.2401   -2.7604    1.1948 H   0  0  0  0  0  0  0  0  0  0  0  0
    0.0660   -4.0979    1.2527 H   0  0  0  0  0  0  0  0  0  0  0  0
   -2.2528   -3.6888    0.6350 H   0  0  0  0  0  0  0  0  0  0  0  0
   -4.3750   -3.0940    0.4079 H   0  0  0  0  0  0  0  0  0  0  0  0
   -4.7971    0.0354   -0.2778 H   0  0  0  0  0  0  0  0  0  0  0  0
   -3.9631    1.1909    1.7553 H   0  0  0  0  0  0  0  0  0  0  0  0
   -4.7072    2.3292    0.6278 H   0  0  0  0  0  0  0  0  0  0  0  0
   -2.9497    2.2366    0.7601 H   0  0  0  0  0  0  0  0  0  0  0  0
   -4.5709    1.8818   -1.8891 H   0  0  0  0  0  0  0  0  0  0  0  0
   -3.7054    0.4573   -2.4733 H   0  0  0  0  0  0  0  0  0  0  0  0
   -2.8125    1.8102   -1.7761 H   0  0  0  0  0  0  0  0  0  0  0  0
   -1.1590    1.0101   -0.2724 H   0  0  0  0  0  0  0  0  0  0  0  0
    0.9049    0.7542   -1.4271 H   0  0  0  0  0  0  0  0  0  0  0  0
    2.7801    2.0312   -2.1663 H   0  0  0  0  0  0  0  0  0  0  0  0
    5.1202    2.7899   -1.9157 H   0  0  0  0  0  0  0  0  0  0  0  0
    7.1774    1.6777    0.7006 H   0  0  0  0  0  0  0  0  0  0  0  0
    5.5354    0.3696    1.5730 H   0  0  0  0  0  0  0  0  0  0  0  0
    3.1905   -0.3880    1.3228 H   0  0  0  0  0  0  0  0  0  0  0  0
  1  2  1  0  0  0  0
  2  3  2  0  0  0  0
  3  4  1  0  0  0  0
  4  5  1  0  0  0  0
  4  6  2  0  0  0  0
  6  7  1  0  0  0  0
  7  8  1  0  0  0  0
  7  9  1  0  0  0  0
  6 10  1  0  0  0  0
 10 11  2  0  0  0  0
 11 12  1  0  0  0  0
 12 13  2  0  0  0  0
 13 14  1  0  0  0  0
 14 15  2  0  0  0  0
 15 16  1  0  0  0  0
 16 17  2  0  0  0  0
 17 18  1  0  0  0  0
 17 19  1  0  0  0  0
 19 20  2  0  0  0  0
 11  2  1  0  0  0  0
 20 14  1  0  0  0  0
  1 21  1  0  0  0  0
  1 22  1  0  0  0  0
  1 23  1  0  0  0  0
  3 24  1  0  0  0  0
  5 25  1  0  0  0  0
  7 26  1  0  0  0  0
  8 27  1  0  0  0  0
  8 28  1  0  0  0  0
  8 29  1  0  0  0  0
  9 30  1  0  0  0  0
  9 31  1  0  0  0  0
  9 32  1  0  0  0  0
 10 33  1  0  0  0  0
 13 34  1  0  0  0  0
 15 35  1  0  0  0  0
 16 36  1  0  0  0  0
 18 37  1  0  0  0  0
 19 38  1  0  0  0  0
 20 39  1  0  0  0  0
M  END
