
  xtb     03212212173D
 energy: -53.916454816155 gnorm: 0.000168195773 xtb: 6.4.1 (afa7bdf)
 29 31  0     0  0            999 V2000
    4.4668    5.5381   -0.6204 N   0  0  0  0  0  0  0  0  0  0  0  0
    3.9344    4.5225   -0.6270 C   0  0  0  0  0  0  0  0  0  0  0  0
    3.2758    3.2731   -0.6349 C   0  0  0  0  0  0  0  0  0  0  0  0
    1.9696    3.1692   -0.1504 C   0  0  0  0  0  0  0  0  0  0  0  0
    1.3258    1.9517   -0.1579 C   0  0  0  0  0  0  0  0  0  0  0  0
    1.9668    0.8067   -0.6485 C   0  0  0  0  0  0  0  0  0  0  0  0
    1.3343   -0.4889   -0.6768 C   0  0  0  0  0  0  0  0  0  0  0  0
    0.1007   -0.8420   -0.2695 C   0  0  0  0  0  0  0  0  0  0  0  0
   -0.8431   -0.0151    0.2754 O   0  0  0  0  0  0  0  0  0  0  0  0
   -1.9452   -0.7666    0.5495 C   0  0  0  0  0  0  0  0  0  0  0  0
   -3.1123   -0.2884    1.1091 C   0  0  0  0  0  0  0  0  0  0  0  0
   -4.1304   -1.2084    1.3154 C   0  0  0  0  0  0  0  0  0  0  0  0
   -3.9875   -2.5436    0.9776 C   0  0  0  0  0  0  0  0  0  0  0  0
   -2.8075   -3.0272    0.4114 C   0  0  0  0  0  0  0  0  0  0  0  0
   -2.6384   -4.3132    0.0738 O   0  0  0  0  0  0  0  0  0  0  0  0
   -1.7726   -2.1119    0.1976 C   0  0  0  0  0  0  0  0  0  0  0  0
   -0.4262   -2.2379   -0.3580 C   0  0  0  0  0  0  0  0  0  0  0  0
    0.1723   -3.1947   -0.7959 O   0  0  0  0  0  0  0  0  0  0  0  0
    3.2774    0.9262   -1.1313 C   0  0  0  0  0  0  0  0  0  0  0  0
    3.9279    2.1396   -1.1270 C   0  0  0  0  0  0  0  0  0  0  0  0
    1.4724    4.0501    0.2285 H   0  0  0  0  0  0  0  0  0  0  0  0
    0.3185    1.8768    0.2168 H   0  0  0  0  0  0  0  0  0  0  0  0
    1.9178   -1.3079   -1.0785 H   0  0  0  0  0  0  0  0  0  0  0  0
   -3.2217    0.7502    1.3712 H   0  0  0  0  0  0  0  0  0  0  0  0
   -5.0599   -0.8755    1.7512 H   0  0  0  0  0  0  0  0  0  0  0  0
   -4.8045   -3.2297    1.1545 H   0  0  0  0  0  0  0  0  0  0  0  0
   -3.4299   -4.8284    0.2768 H   0  0  0  0  0  0  0  0  0  0  0  0
    3.7811    0.0499   -1.5117 H   0  0  0  0  0  0  0  0  0  0  0  0
    4.9378    2.2256   -1.5002 H   0  0  0  0  0  0  0  0  0  0  0  0
  1  2  3  0  0  0  0
  2  3  1  0  0  0  0
  3  4  2  0  0  0  0
  4  5  1  0  0  0  0
  5  6  2  0  0  0  0
  6  7  1  0  0  0  0
  7  8  2  0  0  0  0
  8  9  1  0  0  0  0
  9 10  1  0  0  0  0
 10 11  2  0  0  0  0
 11 12  1  0  0  0  0
 12 13  2  0  0  0  0
 13 14  1  0  0  0  0
 14 15  1  0  0  0  0
 14 16  2  0  0  0  0
 16 17  1  0  0  0  0
 17 18  2  0  0  0  0
  6 19  1  0  0  0  0
 19 20  2  0  0  0  0
 20  3  1  0  0  0  0
 17  8  1  0  0  0  0
 16 10  1  0  0  0  0
  4 21  1  0  0  0  0
  5 22  1  0  0  0  0
  7 23  1  0  0  0  0
 11 24  1  0  0  0  0
 12 25  1  0  0  0  0
 13 26  1  0  0  0  0
 15 27  1  0  0  0  0
 19 28  1  0  0  0  0
 20 29  1  0  0  0  0
M  END
