
  xtb     03212212023D
 energy: -142.095724659280 gnorm: 0.000139857080 xtb: 6.4.1 (afa7bdf)
107112  0     0  0            999 V2000
   -7.4335    4.9843   -1.0922 C   0  0  0  0  0  0  0  0  0  0  0  0
   -5.9709    5.1280   -0.6884 C   0  0  0  0  0  0  0  0  0  0  0  0
   -4.9970    4.9269   -1.8504 C   0  0  0  0  0  0  0  0  0  0  0  0
   -5.0680    3.5193   -2.4386 C   0  0  0  0  0  0  0  0  0  0  0  0
   -3.9276    3.1942   -3.4054 C   0  0  0  0  0  0  0  0  0  0  0  0
   -2.5208    3.2226   -2.7953 C   0  0  0  0  0  0  0  0  0  0  0  0
   -2.3711    2.4664   -1.4746 C   0  0  0  0  0  0  0  0  0  0  0  0
   -2.6266    0.9637   -1.6011 C   0  0  0  0  0  0  0  0  0  0  0  0
   -2.8223    0.3001   -0.2277 C   0  0  0  0  0  0  0  0  0  0  0  0
   -2.8336   -1.2423   -0.3184 C   0  0  0  0  0  0  0  0  0  0  0  0
   -3.9594   -1.8489   -1.1516 C   0  0  0  0  0  0  0  0  0  0  0  0
   -3.8032   -3.3602   -1.3365 C   0  0  0  0  0  0  0  0  0  0  0  0
   -4.0232   -4.1512   -0.0486 C   0  0  0  0  0  0  0  0  0  0  0  0
   -3.9144   -5.6637   -0.2493 C   0  0  0  0  0  0  0  0  0  0  0  0
   -5.0538   -6.2449   -1.0854 C   0  0  0  0  0  0  0  0  0  0  0  0
   -5.0905   -7.7734   -1.0681 C   0  0  0  0  0  0  0  0  0  0  0  0
   -3.8867   -8.4087   -1.7543 C   0  0  0  0  0  0  0  0  0  0  0  0
   -1.7347    0.6919    0.7493 C   0  0  0  0  0  0  0  0  0  0  0  0
   -0.3787    0.4936    0.6479 C   0  0  0  0  0  0  0  0  0  0  0  0
    0.4496    0.9335    1.6888 C   0  0  0  0  0  0  0  0  0  0  0  0
    1.8444    0.7660    1.5967 C   0  0  0  0  0  0  0  0  0  0  0  0
    3.0439    0.6375    1.5147 C   0  0  0  0  0  0  0  0  0  0  0  0
    4.4412    0.4979    1.4204 C   0  0  0  0  0  0  0  0  0  0  0  0
    5.0222   -0.1189    0.3084 C   0  0  0  0  0  0  0  0  0  0  0  0
    6.3897   -0.2430    0.2127 C   0  0  0  0  0  0  0  0  0  0  0  0
    7.2203    0.2414    1.2271 C   0  0  0  0  0  0  0  0  0  0  0  0
    8.6059    0.1182    1.1292 N   0  0  0  0  0  0  0  0  0  0  0  0
    9.4389    1.1260    1.6324 C   0  0  0  0  0  0  0  0  0  0  0  0
   10.6376    0.7998    2.2655 C   0  0  0  0  0  0  0  0  0  0  0  0
   11.4593    1.7967    2.7544 C   0  0  0  0  0  0  0  0  0  0  0  0
   11.0988    3.1283    2.6284 C   0  0  0  0  0  0  0  0  0  0  0  0
    9.9076    3.4573    2.0026 C   0  0  0  0  0  0  0  0  0  0  0  0
    9.0830    2.4681    1.5030 C   0  0  0  0  0  0  0  0  0  0  0  0
    9.1722   -1.0120    0.5258 C   0  0  0  0  0  0  0  0  0  0  0  0
   10.3116   -0.8911   -0.2690 C   0  0  0  0  0  0  0  0  0  0  0  0
   10.8708   -2.0089   -0.8570 C   0  0  0  0  0  0  0  0  0  0  0  0
   10.3027   -3.2586   -0.6709 C   0  0  0  0  0  0  0  0  0  0  0  0
    9.1692   -3.3834    0.1156 C   0  0  0  0  0  0  0  0  0  0  0  0
    8.6074   -2.2729    0.7149 C   0  0  0  0  0  0  0  0  0  0  0  0
    6.6389    0.8532    2.3412 C   0  0  0  0  0  0  0  0  0  0  0  0
    5.2718    0.9816    2.4356 C   0  0  0  0  0  0  0  0  0  0  0  0
   -0.1035    1.5504    2.8178 C   0  0  0  0  0  0  0  0  0  0  0  0
   -1.4654    1.7456    2.9195 C   0  0  0  0  0  0  0  0  0  0  0  0
   -2.2821    1.3195    1.8807 C   0  0  0  0  0  0  0  0  0  0  0  0
   -3.7144    1.4253    1.6985 C   0  0  0  0  0  0  0  0  0  0  0  0
   -4.6820    2.0176    2.5004 C   0  0  0  0  0  0  0  0  0  0  0  0
   -5.9889    2.0436    2.0564 C   0  0  0  0  0  0  0  0  0  0  0  0
   -6.3333    1.4898    0.8209 C   0  0  0  0  0  0  0  0  0  0  0  0
   -7.7114    1.5531    0.3392 C   0  0  0  0  0  0  0  0  0  0  0  0
   -8.1049    1.1183   -0.7164 O   0  0  0  0  0  0  0  0  0  0  0  0
   -5.3539    0.8872    0.0190 C   0  0  0  0  0  0  0  0  0  0  0  0
   -4.0535    0.8452    0.4610 C   0  0  0  0  0  0  0  0  0  0  0  0
   -8.0820    5.2367   -0.2558 H   0  0  0  0  0  0  0  0  0  0  0  0
   -7.6670    5.6517   -1.9190 H   0  0  0  0  0  0  0  0  0  0  0  0
   -7.6564    3.9653   -1.3967 H   0  0  0  0  0  0  0  0  0  0  0  0
   -5.7410    4.4040    0.0987 H   0  0  0  0  0  0  0  0  0  0  0  0
   -5.8143    6.1269   -0.2726 H   0  0  0  0  0  0  0  0  0  0  0  0
   -3.9876    5.1163   -1.4807 H   0  0  0  0  0  0  0  0  0  0  0  0
   -5.2057    5.6608   -2.6325 H   0  0  0  0  0  0  0  0  0  0  0  0
   -5.0736    2.7953   -1.6232 H   0  0  0  0  0  0  0  0  0  0  0  0
   -6.0093    3.4034   -2.9791 H   0  0  0  0  0  0  0  0  0  0  0  0
   -3.9496    3.9065   -4.2341 H   0  0  0  0  0  0  0  0  0  0  0  0
   -4.1153    2.2057   -3.8309 H   0  0  0  0  0  0  0  0  0  0  0  0
   -2.2254    4.2602   -2.6258 H   0  0  0  0  0  0  0  0  0  0  0  0
   -1.8232    2.8066   -3.5270 H   0  0  0  0  0  0  0  0  0  0  0  0
   -3.0570    2.8900   -0.7396 H   0  0  0  0  0  0  0  0  0  0  0  0
   -1.3583    2.6274   -1.0966 H   0  0  0  0  0  0  0  0  0  0  0  0
   -1.7890    0.4915   -2.1185 H   0  0  0  0  0  0  0  0  0  0  0  0
   -3.5250    0.7998   -2.1940 H   0  0  0  0  0  0  0  0  0  0  0  0
   -1.8747   -1.5572   -0.7376 H   0  0  0  0  0  0  0  0  0  0  0  0
   -2.8916   -1.6307    0.7011 H   0  0  0  0  0  0  0  0  0  0  0  0
   -4.9195   -1.6535   -0.6726 H   0  0  0  0  0  0  0  0  0  0  0  0
   -3.9698   -1.3852   -2.1394 H   0  0  0  0  0  0  0  0  0  0  0  0
   -2.8070   -3.5786   -1.7293 H   0  0  0  0  0  0  0  0  0  0  0  0
   -4.5318   -3.6857   -2.0806 H   0  0  0  0  0  0  0  0  0  0  0  0
   -3.2791   -3.8494    0.6914 H   0  0  0  0  0  0  0  0  0  0  0  0
   -5.0096   -3.9111    0.3558 H   0  0  0  0  0  0  0  0  0  0  0  0
   -3.9235   -6.1450    0.7322 H   0  0  0  0  0  0  0  0  0  0  0  0
   -2.9563   -5.8892   -0.7208 H   0  0  0  0  0  0  0  0  0  0  0  0
   -4.9654   -5.9079   -2.1197 H   0  0  0  0  0  0  0  0  0  0  0  0
   -6.0022   -5.8693   -0.6929 H   0  0  0  0  0  0  0  0  0  0  0  0
   -6.0003   -8.1048   -1.5747 H   0  0  0  0  0  0  0  0  0  0  0  0
   -5.1439   -8.1220   -0.0340 H   0  0  0  0  0  0  0  0  0  0  0  0
   -3.7921   -8.0400   -2.7736 H   0  0  0  0  0  0  0  0  0  0  0  0
   -3.9995   -9.4900   -1.7905 H   0  0  0  0  0  0  0  0  0  0  0  0
   -2.9685   -8.1820   -1.2190 H   0  0  0  0  0  0  0  0  0  0  0  0
    0.0616    0.0189   -0.2169 H   0  0  0  0  0  0  0  0  0  0  0  0
    4.3878   -0.4895   -0.4834 H   0  0  0  0  0  0  0  0  0  0  0  0
    6.8312   -0.7104   -0.6554 H   0  0  0  0  0  0  0  0  0  0  0  0
   10.9162   -0.2384    2.3725 H   0  0  0  0  0  0  0  0  0  0  0  0
   12.3841    1.5308    3.2449 H   0  0  0  0  0  0  0  0  0  0  0  0
   11.7420    3.9043    3.0147 H   0  0  0  0  0  0  0  0  0  0  0  0
    9.6215    4.4931    1.8940 H   0  0  0  0  0  0  0  0  0  0  0  0
    8.1600    2.7278    1.0055 H   0  0  0  0  0  0  0  0  0  0  0  0
   10.7508    0.0837   -0.4227 H   0  0  0  0  0  0  0  0  0  0  0  0
   11.7520   -1.9015   -1.4722 H   0  0  0  0  0  0  0  0  0  0  0  0
   10.7406   -4.1292   -1.1350 H   0  0  0  0  0  0  0  0  0  0  0  0
    8.7232   -4.3547    0.2717 H   0  0  0  0  0  0  0  0  0  0  0  0
    7.7301   -2.3746    1.3370 H   0  0  0  0  0  0  0  0  0  0  0  0
    7.2731    1.2215    3.1343 H   0  0  0  0  0  0  0  0  0  0  0  0
    4.8301    1.4519    3.3019 H   0  0  0  0  0  0  0  0  0  0  0  0
    0.5561    1.8764    3.6088 H   0  0  0  0  0  0  0  0  0  0  0  0
   -1.8858    2.2248    3.7912 H   0  0  0  0  0  0  0  0  0  0  0  0
   -4.4137    2.4614    3.4474 H   0  0  0  0  0  0  0  0  0  0  0  0
   -6.7578    2.5072    2.6583 H   0  0  0  0  0  0  0  0  0  0  0  0
   -8.4081    2.0561    1.0404 H   0  0  0  0  0  0  0  0  0  0  0  0
   -5.6588    0.4846   -0.9351 H   0  0  0  0  0  0  0  0  0  0  0  0
  1  2  1  0  0  0  0
  2  3  1  0  0  0  0
  3  4  1  0  0  0  0
  4  5  1  0  0  0  0
  5  6  1  0  0  0  0
  6  7  1  0  0  0  0
  7  8  1  0  0  0  0
  8  9  1  0  0  0  0
  9 10  1  0  0  0  0
 10 11  1  0  0  0  0
 11 12  1  0  0  0  0
 12 13  1  0  0  0  0
 13 14  1  0  0  0  0
 14 15  1  0  0  0  0
 15 16  1  0  0  0  0
 16 17  1  0  0  0  0
  9 18  1  0  0  0  0
 18 19  2  0  0  0  0
 19 20  1  0  0  0  0
 20 21  1  0  0  0  0
 21 22  3  0  0  0  0
 22 23  1  0  0  0  0
 23 24  2  0  0  0  0
 24 25  1  0  0  0  0
 25 26  2  0  0  0  0
 26 27  1  0  0  0  0
 27 28  1  0  0  0  0
 28 29  2  0  0  0  0
 29 30  1  0  0  0  0
 30 31  2  0  0  0  0
 31 32  1  0  0  0  0
 32 33  2  0  0  0  0
 27 34  1  0  0  0  0
 34 35  2  0  0  0  0
 35 36  1  0  0  0  0
 36 37  2  0  0  0  0
 37 38  1  0  0  0  0
 38 39  2  0  0  0  0
 26 40  1  0  0  0  0
 40 41  2  0  0  0  0
 20 42  2  0  0  0  0
 42 43  1  0  0  0  0
 43 44  2  0  0  0  0
 44 45  1  0  0  0  0
 45 46  2  0  0  0  0
 46 47  1  0  0  0  0
 47 48  2  0  0  0  0
 48 49  1  0  0  0  0
 49 50  2  0  0  0  0
 48 51  1  0  0  0  0
 51 52  2  0  0  0  0
 52  9  1  0  0  0  0
 44 18  1  0  0  0  0
 52 45  1  0  0  0  0
 41 23  1  0  0  0  0
 33 28  1  0  0  0  0
 39 34  1  0  0  0  0
  1 53  1  0  0  0  0
  1 54  1  0  0  0  0
  1 55  1  0  0  0  0
  2 56  1  0  0  0  0
  2 57  1  0  0  0  0
  3 58  1  0  0  0  0
  3 59  1  0  0  0  0
  4 60  1  0  0  0  0
  4 61  1  0  0  0  0
  5 62  1  0  0  0  0
  5 63  1  0  0  0  0
  6 64  1  0  0  0  0
  6 65  1  0  0  0  0
  7 66  1  0  0  0  0
  7 67  1  0  0  0  0
  8 68  1  0  0  0  0
  8 69  1  0  0  0  0
 10 70  1  0  0  0  0
 10 71  1  0  0  0  0
 11 72  1  0  0  0  0
 11 73  1  0  0  0  0
 12 74  1  0  0  0  0
 12 75  1  0  0  0  0
 13 76  1  0  0  0  0
 13 77  1  0  0  0  0
 14 78  1  0  0  0  0
 14 79  1  0  0  0  0
 15 80  1  0  0  0  0
 15 81  1  0  0  0  0
 16 82  1  0  0  0  0
 16 83  1  0  0  0  0
 17 84  1  0  0  0  0
 17 85  1  0  0  0  0
 17 86  1  0  0  0  0
 19 87  1  0  0  0  0
 24 88  1  0  0  0  0
 25 89  1  0  0  0  0
 29 90  1  0  0  0  0
 30 91  1  0  0  0  0
 31 92  1  0  0  0  0
 32 93  1  0  0  0  0
 33 94  1  0  0  0  0
 35 95  1  0  0  0  0
 36 96  1  0  0  0  0
 37 97  1  0  0  0  0
 38 98  1  0  0  0  0
 39 99  1  0  0  0  0
 40100  1  0  0  0  0
 41101  1  0  0  0  0
 42102  1  0  0  0  0
 43103  1  0  0  0  0
 46104  1  0  0  0  0
 47105  1  0  0  0  0
 49106  1  0  0  0  0
 51107  1  0  0  0  0
M  END
