
  xtb     03212212263D
 energy: -50.310110973268 gnorm: 0.000281452942 xtb: 6.4.1 (afa7bdf)
 27 29  0     0  0            999 V2000
   -4.9948    0.2939    0.0402 C   0  0  0  0  0  0  0  0  0  0  0  0
   -3.7137    0.8983    0.2933 N   0  0  0  0  0  0  0  0  0  0  0  0
   -2.5087    0.3503   -0.0146 C   0  0  0  0  0  0  0  0  0  0  0  0
   -2.4292   -0.8992   -0.7005 C   0  0  0  0  0  0  0  0  0  0  0  0
   -1.2325   -1.4518   -1.0234 C   0  0  0  0  0  0  0  0  0  0  0  0
   -0.0191   -0.7988   -0.6863 C   0  0  0  0  0  0  0  0  0  0  0  0
    1.1407   -1.3533   -1.0091 N   0  0  0  0  0  0  0  0  0  0  0  0
    2.2519   -0.6985   -0.6691 C   0  0  0  0  0  0  0  0  0  0  0  0
    3.5126   -1.2501   -0.9923 C   0  0  0  0  0  0  0  0  0  0  0  0
    4.6564   -0.5907   -0.6506 C   0  0  0  0  0  0  0  0  0  0  0  0
    6.1942   -1.2597   -1.0430 Cl  0  0  0  0  0  0  0  0  0  0  0  0
    4.5970    0.6540    0.0319 C   0  0  0  0  0  0  0  0  0  0  0  0
    6.0659    1.4519    0.4436 Cl  0  0  0  0  0  0  0  0  0  0  0  0
    3.3982    1.2141    0.3591 C   0  0  0  0  0  0  0  0  0  0  0  0
    2.1890    0.5587    0.0206 C   0  0  0  0  0  0  0  0  0  0  0  0
    1.0275    1.1173    0.3462 N   0  0  0  0  0  0  0  0  0  0  0  0
   -0.0884    0.4634    0.0063 C   0  0  0  0  0  0  0  0  0  0  0  0
   -1.3408    1.0056    0.3256 C   0  0  0  0  0  0  0  0  0  0  0  0
   -5.7756    0.9607    0.3972 H   0  0  0  0  0  0  0  0  0  0  0  0
   -5.0962   -0.6653    0.5580 H   0  0  0  0  0  0  0  0  0  0  0  0
   -5.1466    0.1302   -1.0305 H   0  0  0  0  0  0  0  0  0  0  0  0
   -3.6950    1.7602    0.8116 H   0  0  0  0  0  0  0  0  0  0  0  0
   -3.3420   -1.4097   -0.9638 H   0  0  0  0  0  0  0  0  0  0  0  0
   -1.1675   -2.3960   -1.5410 H   0  0  0  0  0  0  0  0  0  0  0  0
    3.5418   -2.1951   -1.5102 H   0  0  0  0  0  0  0  0  0  0  0  0
    3.3412    2.1579    0.8768 H   0  0  0  0  0  0  0  0  0  0  0  0
   -1.3665    1.9514    0.8450 H   0  0  0  0  0  0  0  0  0  0  0  0
  1  2  1  0  0  0  0
  2  3  1  0  0  0  0
  3  4  2  0  0  0  0
  4  5  1  0  0  0  0
  5  6  2  0  0  0  0
  6  7  1  0  0  0  0
  7  8  2  0  0  0  0
  8  9  1  0  0  0  0
  9 10  2  0  0  0  0
 10 11  1  0  0  0  0
 10 12  1  0  0  0  0
 12 13  1  0  0  0  0
 12 14  2  0  0  0  0
 14 15  1  0  0  0  0
 15 16  2  0  0  0  0
 16 17  1  0  0  0  0
 17 18  2  0  0  0  0
 18  3  1  0  0  0  0
 17  6  1  0  0  0  0
 15  8  1  0  0  0  0
  1 19  1  0  0  0  0
  1 20  1  0  0  0  0
  1 21  1  0  0  0  0
  2 22  1  0  0  0  0
  4 23  1  0  0  0  0
  5 24  1  0  0  0  0
  9 25  1  0  0  0  0
 14 26  1  0  0  0  0
 18 27  1  0  0  0  0
M  END
