
  xtb     03212210553D
 energy: -139.110656507899 gnorm: 0.000264440736 xtb: 6.4.1 (afa7bdf)
 84 90  0     0  0            999 V2000
    6.9341    5.4892    0.8334 O   0  0  0  0  0  0  0  0  0  0  0  0
    6.9673    4.9162   -0.2213 C   0  0  0  0  0  0  0  0  0  0  0  0
    7.9216    5.1405   -1.1326 O   0  0  0  0  0  0  0  0  0  0  0  0
    5.9798    3.8757   -0.6888 C   0  0  0  0  0  0  0  0  0  0  0  0
    6.6399    2.4977   -0.7858 C   0  0  0  0  0  0  0  0  0  0  0  0
    7.1141    2.0030    0.5848 C   0  0  0  0  0  0  0  0  0  0  0  0
    7.7244    0.7338    0.5146 O   0  0  0  0  0  0  0  0  0  0  0  0
    6.9538   -0.3834    0.3812 C   0  0  0  0  0  0  0  0  0  0  0  0
    7.6572   -1.5811    0.2360 C   0  0  0  0  0  0  0  0  0  0  0  0
    6.9785   -2.7747    0.1049 C   0  0  0  0  0  0  0  0  0  0  0  0
    5.5940   -2.8021    0.1160 C   0  0  0  0  0  0  0  0  0  0  0  0
    4.8828   -1.6178    0.2618 C   0  0  0  0  0  0  0  0  0  0  0  0
    3.4072   -1.6149    0.2649 C   0  0  0  0  0  0  0  0  0  0  0  0
    2.7256   -2.3401    1.2474 C   0  0  0  0  0  0  0  0  0  0  0  0
    1.3822   -2.4322    1.3552 N   0  0  0  0  0  0  0  0  0  0  0  0
    1.1431   -3.1925    2.4437 C   0  0  0  0  0  0  0  0  0  0  0  0
   -0.0907   -3.5495    2.9712 C   0  0  0  0  0  0  0  0  0  0  0  0
   -1.3581   -3.2085    2.5254 C   0  0  0  0  0  0  0  0  0  0  0  0
   -2.5846   -3.5652    3.1585 C   0  0  0  0  0  0  0  0  0  0  0  0
   -3.6052   -3.0172    2.4402 C   0  0  0  0  0  0  0  0  0  0  0  0
   -3.0294   -2.3213    1.3394 C   0  0  0  0  0  0  0  0  0  0  0  0
   -1.6791   -2.4626    1.4349 N   0  0  0  0  0  0  0  0  0  0  0  0
   -3.6770   -1.5911    0.3417 C   0  0  0  0  0  0  0  0  0  0  0  0
   -5.1487   -1.5089    0.3728 C   0  0  0  0  0  0  0  0  0  0  0  0
   -5.9410   -2.6498    0.3421 C   0  0  0  0  0  0  0  0  0  0  0  0
   -7.3204   -2.5282    0.3633 C   0  0  0  0  0  0  0  0  0  0  0  0
   -7.9164   -1.2845    0.4064 C   0  0  0  0  0  0  0  0  0  0  0  0
   -7.1315   -0.1302    0.4311 C   0  0  0  0  0  0  0  0  0  0  0  0
   -7.8176    1.0497    0.4757 O   0  0  0  0  0  0  0  0  0  0  0  0
   -7.1169    2.2654    0.3413 C   0  0  0  0  0  0  0  0  0  0  0  0
   -6.6595    2.5139   -1.1001 C   0  0  0  0  0  0  0  0  0  0  0  0
   -5.8291    3.7965   -1.2113 C   0  0  0  0  0  0  0  0  0  0  0  0
   -5.3912    3.9674   -2.6445 C   0  0  0  0  0  0  0  0  0  0  0  0
   -4.3719    3.5488   -3.1204 O   0  0  0  0  0  0  0  0  0  0  0  0
   -6.3052    4.6291   -3.3645 O   0  0  0  0  0  0  0  0  0  0  0  0
   -5.7491   -0.2526    0.4238 C   0  0  0  0  0  0  0  0  0  0  0  0
   -2.9909   -0.9057   -0.6689 C   0  0  0  0  0  0  0  0  0  0  0  0
   -1.6492   -0.7935   -0.7652 N   0  0  0  0  0  0  0  0  0  0  0  0
   -1.4119   -0.0385   -1.8597 C   0  0  0  0  0  0  0  0  0  0  0  0
   -0.1795    0.3456   -2.3683 C   0  0  0  0  0  0  0  0  0  0  0  0
    1.0881    0.0176   -1.9114 C   0  0  0  0  0  0  0  0  0  0  0  0
    2.3162    0.4026   -2.5225 C   0  0  0  0  0  0  0  0  0  0  0  0
    3.3351   -0.1454   -1.8010 C   0  0  0  0  0  0  0  0  0  0  0  0
    2.7562   -0.8713   -0.7219 C   0  0  0  0  0  0  0  0  0  0  0  0
    1.4059   -0.7457   -0.8318 N   0  0  0  0  0  0  0  0  0  0  0  0
   -2.6597    0.3348   -2.5063 C   0  0  0  0  0  0  0  0  0  0  0  0
   -3.6431   -0.2174   -1.7720 C   0  0  0  0  0  0  0  0  0  0  0  0
    2.3920   -3.6032    3.0649 C   0  0  0  0  0  0  0  0  0  0  0  0
    3.3798   -3.0679    2.3229 C   0  0  0  0  0  0  0  0  0  0  0  0
    5.5658   -0.4109    0.3931 C   0  0  0  0  0  0  0  0  0  0  0  0
    8.5534    5.8017   -0.8089 H   0  0  0  0  0  0  0  0  0  0  0  0
    5.6182    4.1683   -1.6753 H   0  0  0  0  0  0  0  0  0  0  0  0
    5.1447    3.8519    0.0119 H   0  0  0  0  0  0  0  0  0  0  0  0
    5.9218    1.7890   -1.2014 H   0  0  0  0  0  0  0  0  0  0  0  0
    7.4964    2.5459   -1.4603 H   0  0  0  0  0  0  0  0  0  0  0  0
    7.8956    2.6639    0.9702 H   0  0  0  0  0  0  0  0  0  0  0  0
    6.2858    2.0040    1.3039 H   0  0  0  0  0  0  0  0  0  0  0  0
    8.7349   -1.5445    0.2319 H   0  0  0  0  0  0  0  0  0  0  0  0
    7.5331   -3.6941   -0.0096 H   0  0  0  0  0  0  0  0  0  0  0  0
    5.0619   -3.7337   -0.0023 H   0  0  0  0  0  0  0  0  0  0  0  0
   -0.0606   -4.1628    3.8620 H   0  0  0  0  0  0  0  0  0  0  0  0
   -2.6600   -4.1555    4.0512 H   0  0  0  0  0  0  0  0  0  0  0  0
   -4.6549   -3.0744    2.6510 H   0  0  0  0  0  0  0  0  0  0  0  0
   -1.0434   -2.0302    0.7723 H   0  0  0  0  0  0  0  0  0  0  0  0
   -5.4771   -3.6223    0.2792 H   0  0  0  0  0  0  0  0  0  0  0  0
   -7.9378   -3.4138    0.3374 H   0  0  0  0  0  0  0  0  0  0  0  0
   -8.9892   -1.1761    0.4189 H   0  0  0  0  0  0  0  0  0  0  0  0
   -7.8355    3.0330    0.6420 H   0  0  0  0  0  0  0  0  0  0  0  0
   -6.2631    2.3058    1.0295 H   0  0  0  0  0  0  0  0  0  0  0  0
   -6.0588    1.6694   -1.4420 H   0  0  0  0  0  0  0  0  0  0  0  0
   -7.5401    2.5842   -1.7412 H   0  0  0  0  0  0  0  0  0  0  0  0
   -4.9423    3.7203   -0.5815 H   0  0  0  0  0  0  0  0  0  0  0  0
   -6.4276    4.6570   -0.9129 H   0  0  0  0  0  0  0  0  0  0  0  0
   -6.0259    4.7009   -4.2910 H   0  0  0  0  0  0  0  0  0  0  0  0
   -5.1055    0.6121    0.4665 H   0  0  0  0  0  0  0  0  0  0  0  0
   -0.2108    0.9695   -3.2513 H   0  0  0  0  0  0  0  0  0  0  0  0
    2.3941    1.0092   -3.4040 H   0  0  0  0  0  0  0  0  0  0  0  0
    4.3862   -0.0807   -2.0041 H   0  0  0  0  0  0  0  0  0  0  0  0
    0.7677   -1.1975   -0.1847 H   0  0  0  0  0  0  0  0  0  0  0  0
   -2.7383    0.9356   -3.3911 H   0  0  0  0  0  0  0  0  0  0  0  0
   -4.7000   -0.2081   -1.9548 H   0  0  0  0  0  0  0  0  0  0  0  0
    2.4646   -4.2084    3.9483 H   0  0  0  0  0  0  0  0  0  0  0  0
    4.4401   -3.1271    2.4717 H   0  0  0  0  0  0  0  0  0  0  0  0
    4.9844    0.4884    0.5243 H   0  0  0  0  0  0  0  0  0  0  0  0
  1  2  2  0  0  0  0
  2  3  1  0  0  0  0
  2  4  1  0  0  0  0
  4  5  1  0  0  0  0
  5  6  1  0  0  0  0
  6  7  1  0  0  0  0
  7  8  1  0  0  0  0
  8  9  2  0  0  0  0
  9 10  1  0  0  0  0
 10 11  2  0  0  0  0
 11 12  1  0  0  0  0
 12 13  1  0  0  0  0
 13 14  1  0  0  0  0
 14 15  2  0  0  0  0
 15 16  1  0  0  0  0
 16 17  2  0  0  0  0
 17 18  1  0  0  0  0
 18 19  2  0  0  0  0
 19 20  1  0  0  0  0
 20 21  2  0  0  0  0
 21 22  1  0  0  0  0
 21 23  1  0  0  0  0
 23 24  1  0  0  0  0
 24 25  2  0  0  0  0
 25 26  1  0  0  0  0
 26 27  2  0  0  0  0
 27 28  1  0  0  0  0
 28 29  1  0  0  0  0
 29 30  1  0  0  0  0
 30 31  1  0  0  0  0
 31 32  1  0  0  0  0
 32 33  1  0  0  0  0
 33 34  2  0  0  0  0
 33 35  1  0  0  0  0
 28 36  2  0  0  0  0
 23 37  2  0  0  0  0
 37 38  1  0  0  0  0
 38 39  2  0  0  0  0
 39 40  1  0  0  0  0
 40 41  2  0  0  0  0
 41 42  1  0  0  0  0
 42 43  2  0  0  0  0
 43 44  1  0  0  0  0
 44 45  1  0  0  0  0
 39 46  1  0  0  0  0
 46 47  2  0  0  0  0
 16 48  1  0  0  0  0
 48 49  2  0  0  0  0
 12 50  2  0  0  0  0
 50  8  1  0  0  0  0
 44 13  2  0  0  0  0
 49 14  1  0  0  0  0
 22 18  1  0  0  0  0
 36 24  1  0  0  0  0
 47 37  1  0  0  0  0
 45 41  1  0  0  0  0
  3 51  1  0  0  0  0
  4 52  1  0  0  0  0
  4 53  1  0  0  0  0
  5 54  1  0  0  0  0
  5 55  1  0  0  0  0
  6 56  1  0  0  0  0
  6 57  1  0  0  0  0
  9 58  1  0  0  0  0
 10 59  1  0  0  0  0
 11 60  1  0  0  0  0
 17 61  1  0  0  0  0
 19 62  1  0  0  0  0
 20 63  1  0  0  0  0
 22 64  1  0  0  0  0
 25 65  1  0  0  0  0
 26 66  1  0  0  0  0
 27 67  1  0  0  0  0
 30 68  1  0  0  0  0
 30 69  1  0  0  0  0
 31 70  1  0  0  0  0
 31 71  1  0  0  0  0
 32 72  1  0  0  0  0
 32 73  1  0  0  0  0
 35 74  1  0  0  0  0
 36 75  1  0  0  0  0
 40 76  1  0  0  0  0
 42 77  1  0  0  0  0
 43 78  1  0  0  0  0
 45 79  1  0  0  0  0
 46 80  1  0  0  0  0
 47 81  1  0  0  0  0
 48 82  1  0  0  0  0
 49 83  1  0  0  0  0
 50 84  1  0  0  0  0
M  END
