
  xtb     03212210493D
 energy: -59.356001583181 gnorm: 0.000108541486 xtb: 6.4.1 (afa7bdf)
 37 39  0     0  0            999 V2000
   -4.3472   -2.8141    0.1856 O   0  0  0  0  0  0  0  0  0  0  0  0
   -3.1837   -2.4171   -0.3994 C   0  0  0  0  0  0  0  0  0  0  0  0
   -2.5850   -3.2741   -1.3206 C   0  0  0  0  0  0  0  0  0  0  0  0
   -1.4015   -2.9028   -1.9287 C   0  0  0  0  0  0  0  0  0  0  0  0
   -0.8123   -1.6846   -1.6494 C   0  0  0  0  0  0  0  0  0  0  0  0
   -1.4071   -0.8225   -0.7263 C   0  0  0  0  0  0  0  0  0  0  0  0
   -0.8004    0.3397   -0.3194 N   0  0  0  0  0  0  0  0  0  0  0  0
   -0.2397    1.1741   -1.0891 C   0  0  0  0  0  0  0  0  0  0  0  0
    0.4963    2.3148   -0.5756 C   0  0  0  0  0  0  0  0  0  0  0  0
    0.7215    3.3954   -1.4335 C   0  0  0  0  0  0  0  0  0  0  0  0
    1.3388    4.5495   -1.0011 C   0  0  0  0  0  0  0  0  0  0  0  0
    1.7525    4.6492    0.3194 C   0  0  0  0  0  0  0  0  0  0  0  0
    1.5756    3.5836    1.1788 C   0  0  0  0  0  0  0  0  0  0  0  0
    0.9677    2.4056    0.7493 C   0  0  0  0  0  0  0  0  0  0  0  0
    0.8302    1.4304    1.6909 O   0  0  0  0  0  0  0  0  0  0  0  0
    1.0950    0.1188    1.3963 C   0  0  0  0  0  0  0  0  0  0  0  0
    0.4426   -0.8490    2.1533 C   0  0  0  0  0  0  0  0  0  0  0  0
    0.7059   -2.1864    1.9347 C   0  0  0  0  0  0  0  0  0  0  0  0
    1.6274   -2.5711    0.9748 C   0  0  0  0  0  0  0  0  0  0  0  0
    2.2993   -1.6060    0.2454 C   0  0  0  0  0  0  0  0  0  0  0  0
    2.0446   -0.2635    0.4553 C   0  0  0  0  0  0  0  0  0  0  0  0
   -2.5899   -1.2047   -0.0935 C   0  0  0  0  0  0  0  0  0  0  0  0
   -4.6443   -2.1379    0.8064 H   0  0  0  0  0  0  0  0  0  0  0  0
   -3.0571   -4.2189   -1.5352 H   0  0  0  0  0  0  0  0  0  0  0  0
   -0.9339   -3.5725   -2.6352 H   0  0  0  0  0  0  0  0  0  0  0  0
    0.1253   -1.4054   -2.1067 H   0  0  0  0  0  0  0  0  0  0  0  0
   -0.3172    1.1160   -2.1841 H   0  0  0  0  0  0  0  0  0  0  0  0
    0.3773    3.3191   -2.4553 H   0  0  0  0  0  0  0  0  0  0  0  0
    1.4924    5.3711   -1.6838 H   0  0  0  0  0  0  0  0  0  0  0  0
    2.2271    5.5516    0.6738 H   0  0  0  0  0  0  0  0  0  0  0  0
    1.9092    3.6357    2.2039 H   0  0  0  0  0  0  0  0  0  0  0  0
   -0.2782   -0.5320    2.8897 H   0  0  0  0  0  0  0  0  0  0  0  0
    0.1836   -2.9349    2.5116 H   0  0  0  0  0  0  0  0  0  0  0  0
    1.8229   -3.6177    0.7979 H   0  0  0  0  0  0  0  0  0  0  0  0
    3.0312   -1.8974   -0.4939 H   0  0  0  0  0  0  0  0  0  0  0  0
    2.5719    0.4899   -0.1136 H   0  0  0  0  0  0  0  0  0  0  0  0
   -3.0404   -0.5317    0.6229 H   0  0  0  0  0  0  0  0  0  0  0  0
  1  2  1  0  0  0  0
  2  3  2  0  0  0  0
  3  4  1  0  0  0  0
  4  5  2  0  0  0  0
  5  6  1  0  0  0  0
  6  7  1  0  0  0  0
  7  8  2  0  0  0  0
  8  9  1  0  0  0  0
  9 10  2  0  0  0  0
 10 11  1  0  0  0  0
 11 12  2  0  0  0  0
 12 13  1  0  0  0  0
 13 14  2  0  0  0  0
 14 15  1  0  0  0  0
 15 16  1  0  0  0  0
 16 17  2  0  0  0  0
 17 18  1  0  0  0  0
 18 19  2  0  0  0  0
 19 20  1  0  0  0  0
 20 21  2  0  0  0  0
  6 22  2  0  0  0  0
 22  2  1  0  0  0  0
 14  9  1  0  0  0  0
 21 16  1  0  0  0  0
  1 23  1  0  0  0  0
  3 24  1  0  0  0  0
  4 25  1  0  0  0  0
  5 26  1  0  0  0  0
  8 27  1  0  0  0  0
 10 28  1  0  0  0  0
 11 29  1  0  0  0  0
 12 30  1  0  0  0  0
 13 31  1  0  0  0  0
 17 32  1  0  0  0  0
 18 33  1  0  0  0  0
 19 34  1  0  0  0  0
 20 35  1  0  0  0  0
 21 36  1  0  0  0  0
 22 37  1  0  0  0  0
M  END
