
  xtb     03212211403D
 energy: -45.733348817126 gnorm: 0.000282710921 xtb: 6.4.1 (afa7bdf)
 30 32  0     0  0            999 V2000
    3.0984   -1.7542   -0.5489 C   0  0  0  0  0  0  0  0  0  0  0  0
    3.0367   -0.4093   -0.0321 N   0  0  0  0  0  0  0  0  0  0  0  0
    4.2703    0.2894    0.2321 C   0  0  0  0  0  0  0  0  0  0  0  0
    1.8337    0.1990    0.1853 C   0  0  0  0  0  0  0  0  0  0  0  0
    1.7638    1.4949    0.7282 C   0  0  0  0  0  0  0  0  0  0  0  0
    0.5549    2.1241    0.9549 C   0  0  0  0  0  0  0  0  0  0  0  0
   -0.6223    1.4680    0.6429 C   0  0  0  0  0  0  0  0  0  0  0  0
   -0.5705    0.1695    0.0993 C   0  0  0  0  0  0  0  0  0  0  0  0
    0.6258   -0.4623   -0.1301 C   0  0  0  0  0  0  0  0  0  0  0  0
   -1.9439   -0.2826   -0.1329 C   0  0  0  0  0  0  0  0  0  0  0  0
   -2.4466   -1.4618   -0.6418 C   0  0  0  0  0  0  0  0  0  0  0  0
   -3.8276   -1.6057   -0.7434 C   0  0  0  0  0  0  0  0  0  0  0  0
   -4.6844   -0.5944   -0.3454 C   0  0  0  0  0  0  0  0  0  0  0  0
   -4.1836    0.5978    0.1690 C   0  0  0  0  0  0  0  0  0  0  0  0
   -2.8169    0.7432    0.2709 C   0  0  0  0  0  0  0  0  0  0  0  0
   -2.0206    1.8989    0.7798 C   0  0  0  0  0  0  0  0  0  0  0  0
   -2.4492    2.9510    1.2066 O   0  0  0  0  0  0  0  0  0  0  0  0
    4.1343   -2.0818   -0.5865 H   0  0  0  0  0  0  0  0  0  0  0  0
    2.5488   -2.4472    0.0944 H   0  0  0  0  0  0  0  0  0  0  0  0
    2.6856   -1.8128   -1.5614 H   0  0  0  0  0  0  0  0  0  0  0  0
    4.3226    1.2228   -0.3358 H   0  0  0  0  0  0  0  0  0  0  0  0
    4.3753    0.5214    1.2967 H   0  0  0  0  0  0  0  0  0  0  0  0
    5.1115   -0.3325   -0.0637 H   0  0  0  0  0  0  0  0  0  0  0  0
    2.6677    2.0220    0.9830 H   0  0  0  0  0  0  0  0  0  0  0  0
    0.5266    3.1190    1.3733 H   0  0  0  0  0  0  0  0  0  0  0  0
    0.6307   -1.4532   -0.5525 H   0  0  0  0  0  0  0  0  0  0  0  0
   -1.7910   -2.2605   -0.9566 H   0  0  0  0  0  0  0  0  0  0  0  0
   -4.2360   -2.5241   -1.1402 H   0  0  0  0  0  0  0  0  0  0  0  0
   -5.7519   -0.7323   -0.4350 H   0  0  0  0  0  0  0  0  0  0  0  0
   -4.8419    1.3937    0.4830 H   0  0  0  0  0  0  0  0  0  0  0  0
  1  2  1  0  0  0  0
  2  3  1  0  0  0  0
  2  4  1  0  0  0  0
  4  5  2  0  0  0  0
  5  6  1  0  0  0  0
  6  7  2  0  0  0  0
  7  8  1  0  0  0  0
  8  9  2  0  0  0  0
  8 10  1  0  0  0  0
 10 11  2  0  0  0  0
 11 12  1  0  0  0  0
 12 13  2  0  0  0  0
 13 14  1  0  0  0  0
 14 15  2  0  0  0  0
 15 16  1  0  0  0  0
 16 17  2  0  0  0  0
  9  4  1  0  0  0  0
 15 10  1  0  0  0  0
 16  7  1  0  0  0  0
  1 18  1  0  0  0  0
  1 19  1  0  0  0  0
  1 20  1  0  0  0  0
  3 21  1  0  0  0  0
  3 22  1  0  0  0  0
  3 23  1  0  0  0  0
  5 24  1  0  0  0  0
  6 25  1  0  0  0  0
  9 26  1  0  0  0  0
 11 27  1  0  0  0  0
 12 28  1  0  0  0  0
 13 29  1  0  0  0  0
 14 30  1  0  0  0  0
M  END
