
  xtb     03212210523D
 energy: -66.334661304047 gnorm: 0.000281279004 xtb: 6.4.1 (afa7bdf)
 39 41  0     0  0            999 V2000
    4.3868   -1.5647   -5.0937 C   0  0  0  0  0  0  0  0  0  0  0  0
    4.5273   -1.9630   -3.6371 C   0  0  0  0  0  0  0  0  0  0  0  0
    3.4036   -1.4525   -2.9233 O   0  0  0  0  0  0  0  0  0  0  0  0
    3.3510   -1.7369   -1.6172 C   0  0  0  0  0  0  0  0  0  0  0  0
    4.2004   -2.3903   -1.0343 O   0  0  0  0  0  0  0  0  0  0  0  0
    2.1861   -1.1806   -0.9751 C   0  0  0  0  0  0  0  0  0  0  0  0
    1.0125   -0.2365   -1.8707 S   0  0  0  0  0  0  0  0  0  0  0  0
    0.0956    0.0023   -0.4198 C   0  0  0  0  0  0  0  0  0  0  0  0
   -1.0264    0.6884   -0.3861 N   0  0  0  0  0  0  0  0  0  0  0  0
   -1.6710    0.8159    0.7650 C   0  0  0  0  0  0  0  0  0  0  0  0
   -2.9278    1.5786    0.6790 C   0  0  0  0  0  0  0  0  0  0  0  0
   -4.1078    1.1242    1.2610 C   0  0  0  0  0  0  0  0  0  0  0  0
   -5.2733    1.8580    1.1340 C   0  0  0  0  0  0  0  0  0  0  0  0
   -5.2742    3.0505    0.4302 C   0  0  0  0  0  0  0  0  0  0  0  0
   -4.1074    3.4986   -0.1675 C   0  0  0  0  0  0  0  0  0  0  0  0
   -2.9430    2.7639   -0.0521 C   0  0  0  0  0  0  0  0  0  0  0  0
   -1.1730    0.2915    1.9783 C   0  0  0  0  0  0  0  0  0  0  0  0
   -1.8419    0.5288    3.2962 C   0  0  0  0  0  0  0  0  0  0  0  0
    0.0173   -0.4376    1.9308 C   0  0  0  0  0  0  0  0  0  0  0  0
    0.5602   -0.9784    3.1179 C   0  0  0  0  0  0  0  0  0  0  0  0
    1.0077   -1.4191    4.0787 N   0  0  0  0  0  0  0  0  0  0  0  0
    0.6830   -0.6207    0.7049 C   0  0  0  0  0  0  0  0  0  0  0  0
    1.8930   -1.3121    0.3746 C   0  0  0  0  0  0  0  0  0  0  0  0
    2.6488   -2.0315    1.2243 N   0  0  0  0  0  0  0  0  0  0  0  0
    3.4687   -1.9745   -5.5054 H   0  0  0  0  0  0  0  0  0  0  0  0
    5.2330   -1.9436   -5.6594 H   0  0  0  0  0  0  0  0  0  0  0  0
    4.3526   -0.4823   -5.1826 H   0  0  0  0  0  0  0  0  0  0  0  0
    5.4431   -1.5521   -3.1962 H   0  0  0  0  0  0  0  0  0  0  0  0
    4.5556   -3.0527   -3.5202 H   0  0  0  0  0  0  0  0  0  0  0  0
   -4.1237    0.1808    1.7854 H   0  0  0  0  0  0  0  0  0  0  0  0
   -6.1855    1.4952    1.5844 H   0  0  0  0  0  0  0  0  0  0  0  0
   -6.1847    3.6241    0.3398 H   0  0  0  0  0  0  0  0  0  0  0  0
   -4.1073    4.4216   -0.7282 H   0  0  0  0  0  0  0  0  0  0  0  0
   -2.0305    3.0973   -0.5216 H   0  0  0  0  0  0  0  0  0  0  0  0
   -2.4794   -0.3161    3.5596 H   0  0  0  0  0  0  0  0  0  0  0  0
   -1.0983    0.6331    4.0851 H   0  0  0  0  0  0  0  0  0  0  0  0
   -2.4563    1.4251    3.2637 H   0  0  0  0  0  0  0  0  0  0  0  0
    2.4808   -2.0176    2.2141 H   0  0  0  0  0  0  0  0  0  0  0  0
    3.5048   -2.4145    0.8466 H   0  0  0  0  0  0  0  0  0  0  0  0
  1  2  1  0  0  0  0
  2  3  1  0  0  0  0
  3  4  1  0  0  0  0
  4  5  2  0  0  0  0
  4  6  1  0  0  0  0
  6  7  1  0  0  0  0
  7  8  1  0  0  0  0
  8  9  2  0  0  0  0
  9 10  1  0  0  0  0
 10 11  1  0  0  0  0
 11 12  2  0  0  0  0
 12 13  1  0  0  0  0
 13 14  2  0  0  0  0
 14 15  1  0  0  0  0
 15 16  2  0  0  0  0
 10 17  2  0  0  0  0
 17 18  1  0  0  0  0
 17 19  1  0  0  0  0
 19 20  1  0  0  0  0
 20 21  3  0  0  0  0
 19 22  2  0  0  0  0
 22 23  1  0  0  0  0
 23 24  1  0  0  0  0
 23  6  2  0  0  0  0
 22  8  1  0  0  0  0
 16 11  1  0  0  0  0
  1 25  1  0  0  0  0
  1 26  1  0  0  0  0
  1 27  1  0  0  0  0
  2 28  1  0  0  0  0
  2 29  1  0  0  0  0
 12 30  1  0  0  0  0
 13 31  1  0  0  0  0
 14 32  1  0  0  0  0
 15 33  1  0  0  0  0
 16 34  1  0  0  0  0
 18 35  1  0  0  0  0
 18 36  1  0  0  0  0
 18 37  1  0  0  0  0
 24 38  1  0  0  0  0
 24 39  1  0  0  0  0
M  END
