
  xtb     03212212253D
 energy: -55.906872770020 gnorm: 0.000111364850 xtb: 6.4.1 (afa7bdf)
 30 34  0     0  0            999 V2000
    0.6862   -1.7630    4.4086 N   0  0  0  0  0  0  0  0  0  0  0  0
    0.5207   -1.3372    3.3572 C   0  0  0  0  0  0  0  0  0  0  0  0
    0.3170   -0.8142    2.0658 C   0  0  0  0  0  0  0  0  0  0  0  0
   -0.9591   -0.5947    1.5283 C   0  0  0  0  0  0  0  0  0  0  0  0
   -2.1870   -0.8084    2.0606 N   0  0  0  0  0  0  0  0  0  0  0  0
   -3.0491   -0.4353    1.1419 C   0  0  0  0  0  0  0  0  0  0  0  0
   -4.4559   -0.4478    1.1774 C   0  0  0  0  0  0  0  0  0  0  0  0
   -5.1519   -0.0070    0.0907 C   0  0  0  0  0  0  0  0  0  0  0  0
   -4.4782    0.4595   -1.0641 C   0  0  0  0  0  0  0  0  0  0  0  0
   -3.1204    0.4726   -1.1008 C   0  0  0  0  0  0  0  0  0  0  0  0
   -2.4275    0.0357   -0.0240 N   0  0  0  0  0  0  0  0  0  0  0  0
   -1.0830   -0.0588    0.2049 C   0  0  0  0  0  0  0  0  0  0  0  0
   -0.1070    0.2749   -0.6235 N   0  0  0  0  0  0  0  0  0  0  0  0
    1.0838    0.0571   -0.0898 C   0  0  0  0  0  0  0  0  0  0  0  0
    1.3737   -0.4699    1.2111 C   0  0  0  0  0  0  0  0  0  0  0  0
    2.7143   -0.5461    1.3941 N   0  0  0  0  0  0  0  0  0  0  0  0
    3.2566   -0.0979    0.2844 C   0  0  0  0  0  0  0  0  0  0  0  0
    4.6154    0.0378   -0.0561 C   0  0  0  0  0  0  0  0  0  0  0  0
    4.9468    0.5336   -1.2824 C   0  0  0  0  0  0  0  0  0  0  0  0
    3.9448    0.9104   -2.2093 C   0  0  0  0  0  0  0  0  0  0  0  0
    2.6327    0.7804   -1.8831 C   0  0  0  0  0  0  0  0  0  0  0  0
    2.3012    0.2888   -0.6670 N   0  0  0  0  0  0  0  0  0  0  0  0
   -4.9362   -0.8088    2.0709 H   0  0  0  0  0  0  0  0  0  0  0  0
   -6.2307   -0.0091    0.0995 H   0  0  0  0  0  0  0  0  0  0  0  0
   -5.0428    0.8044   -1.9142 H   0  0  0  0  0  0  0  0  0  0  0  0
   -2.5338    0.8117   -1.9405 H   0  0  0  0  0  0  0  0  0  0  0  0
    5.3513   -0.2581    0.6721 H   0  0  0  0  0  0  0  0  0  0  0  0
    5.9831    0.6447   -1.5612 H   0  0  0  0  0  0  0  0  0  0  0  0
    4.2233    1.3004   -3.1741 H   0  0  0  0  0  0  0  0  0  0  0  0
    1.8115    1.0442   -2.5314 H   0  0  0  0  0  0  0  0  0  0  0  0
  1  2  3  0  0  0  0
  2  3  1  0  0  0  0
  3  4  2  0  0  0  0
  4  5  1  0  0  0  0
  5  6  2  0  0  0  0
  6  7  1  0  0  0  0
  7  8  2  0  0  0  0
  8  9  1  0  0  0  0
  9 10  2  0  0  0  0
 10 11  1  0  0  0  0
 11 12  1  0  0  0  0
 12 13  2  0  0  0  0
 13 14  1  0  0  0  0
 14 15  2  0  0  0  0
 15 16  1  0  0  0  0
 16 17  2  0  0  0  0
 17 18  1  0  0  0  0
 18 19  2  0  0  0  0
 19 20  1  0  0  0  0
 20 21  2  0  0  0  0
 21 22  1  0  0  0  0
 15  3  1  0  0  0  0
 22 17  1  0  0  0  0
 12  4  1  0  0  0  0
 22 14  1  0  0  0  0
 11  6  1  0  0  0  0
  7 23  1  0  0  0  0
  8 24  1  0  0  0  0
  9 25  1  0  0  0  0
 10 26  1  0  0  0  0
 18 27  1  0  0  0  0
 19 28  1  0  0  0  0
 20 29  1  0  0  0  0
 21 30  1  0  0  0  0
M  END
