
  xtb     03212212133D
 energy: -52.847238141360 gnorm: 0.000205336540 xtb: 6.4.1 (afa7bdf)
 30 32  0     0  0            999 V2000
   -5.7328    0.1970    0.2994 C   0  0  0  0  0  0  0  0  0  0  0  0
   -4.9380   -0.7692   -0.3509 O   0  0  0  0  0  0  0  0  0  0  0  0
   -3.5947   -0.6510   -0.2987 C   0  0  0  0  0  0  0  0  0  0  0  0
   -2.8715   -1.6550   -0.9718 C   0  0  0  0  0  0  0  0  0  0  0  0
   -1.5036   -1.6446   -0.9910 C   0  0  0  0  0  0  0  0  0  0  0  0
   -0.7983   -0.6238   -0.3347 C   0  0  0  0  0  0  0  0  0  0  0  0
    0.5589   -0.5998   -0.3451 N   0  0  0  0  0  0  0  0  0  0  0  0
    1.2084    0.3464    0.2618 C   0  0  0  0  0  0  0  0  0  0  0  0
    2.6697    0.2956    0.1972 C   0  0  0  0  0  0  0  0  0  0  0  0
    3.2578   -0.7406   -0.5396 C   0  0  0  0  0  0  0  0  0  0  0  0
    4.6286   -0.8451   -0.6402 C   0  0  0  0  0  0  0  0  0  0  0  0
    5.4455    0.0811   -0.0085 C   0  0  0  0  0  0  0  0  0  0  0  0
    4.8760    1.1090    0.7235 C   0  0  0  0  0  0  0  0  0  0  0  0
    3.5016    1.2214    0.8302 C   0  0  0  0  0  0  0  0  0  0  0  0
    0.4988    1.4304    0.9849 C   0  0  0  0  0  0  0  0  0  0  0  0
    0.9909    2.3577    1.5782 O   0  0  0  0  0  0  0  0  0  0  0  0
   -0.8688    1.3675    0.9722 O   0  0  0  0  0  0  0  0  0  0  0  0
   -1.5273    0.3722    0.3328 C   0  0  0  0  0  0  0  0  0  0  0  0
   -2.9161    0.3671    0.3568 C   0  0  0  0  0  0  0  0  0  0  0  0
   -5.5402    0.2131    1.3761 H   0  0  0  0  0  0  0  0  0  0  0  0
   -6.7639   -0.1028    0.1211 H   0  0  0  0  0  0  0  0  0  0  0  0
   -5.5678    1.1952   -0.1164 H   0  0  0  0  0  0  0  0  0  0  0  0
   -3.4334   -2.4288   -1.4692 H   0  0  0  0  0  0  0  0  0  0  0  0
   -0.9410   -2.4081   -1.5029 H   0  0  0  0  0  0  0  0  0  0  0  0
    2.6120   -1.4539   -1.0264 H   0  0  0  0  0  0  0  0  0  0  0  0
    5.0664   -1.6499   -1.2126 H   0  0  0  0  0  0  0  0  0  0  0  0
    6.5198    0.0005   -0.0876 H   0  0  0  0  0  0  0  0  0  0  0  0
    5.5071    1.8328    1.2179 H   0  0  0  0  0  0  0  0  0  0  0  0
    3.0752    2.0268    1.4037 H   0  0  0  0  0  0  0  0  0  0  0  0
   -3.4193    1.1590    0.8862 H   0  0  0  0  0  0  0  0  0  0  0  0
  1  2  1  0  0  0  0
  2  3  1  0  0  0  0
  3  4  2  0  0  0  0
  4  5  1  0  0  0  0
  5  6  2  0  0  0  0
  6  7  1  0  0  0  0
  7  8  2  0  0  0  0
  8  9  1  0  0  0  0
  9 10  2  0  0  0  0
 10 11  1  0  0  0  0
 11 12  2  0  0  0  0
 12 13  1  0  0  0  0
 13 14  2  0  0  0  0
  8 15  1  0  0  0  0
 15 16  2  0  0  0  0
 15 17  1  0  0  0  0
 17 18  1  0  0  0  0
 18 19  2  0  0  0  0
 19  3  1  0  0  0  0
 18  6  1  0  0  0  0
 14  9  1  0  0  0  0
  1 20  1  0  0  0  0
  1 21  1  0  0  0  0
  1 22  1  0  0  0  0
  4 23  1  0  0  0  0
  5 24  1  0  0  0  0
 10 25  1  0  0  0  0
 11 26  1  0  0  0  0
 12 27  1  0  0  0  0
 13 28  1  0  0  0  0
 14 29  1  0  0  0  0
 19 30  1  0  0  0  0
M  END
