
  xtb     03212212123D
 energy: -132.516234344949 gnorm: 0.000153368031 xtb: 6.4.1 (afa7bdf)
103105  0     0  0            999 V2000
  -14.4436   -2.6838   -3.1959 C   0  0  0  0  0  0  0  0  0  0  0  0
  -13.0171   -2.1477   -3.1798 C   0  0  0  0  0  0  0  0  0  0  0  0
  -12.0722   -3.0881   -2.4346 C   0  0  0  0  0  0  0  0  0  0  0  0
  -10.6094   -2.6456   -2.4805 C   0  0  0  0  0  0  0  0  0  0  0  0
  -10.3374   -1.3641   -1.6955 C   0  0  0  0  0  0  0  0  0  0  0  0
   -8.8507   -1.0158   -1.6735 C   0  0  0  0  0  0  0  0  0  0  0  0
   -8.5817    0.2624   -0.8830 C   0  0  0  0  0  0  0  0  0  0  0  0
   -7.1248    0.7247   -0.9447 C   0  0  0  0  0  0  0  0  0  0  0  0
   -6.1042   -0.2649   -0.3807 C   0  0  0  0  0  0  0  0  0  0  0  0
   -6.3359   -0.5933    1.0924 C   0  0  0  0  0  0  0  0  0  0  0  0
   -5.2177   -1.4417    1.6995 C   0  0  0  0  0  0  0  0  0  0  0  0
   -3.9025   -0.6878    1.8870 C   0  0  0  0  0  0  0  0  0  0  0  0
   -3.2210   -0.6329    0.6497 O   0  0  0  0  0  0  0  0  0  0  0  0
   -2.0388    0.0211    0.5709 C   0  0  0  0  0  0  0  0  0  0  0  0
   -1.4334    0.0409   -0.6913 C   0  0  0  0  0  0  0  0  0  0  0  0
   -0.2324    0.6803   -0.8686 C   0  0  0  0  0  0  0  0  0  0  0  0
    0.4139    1.3287    0.1876 C   0  0  0  0  0  0  0  0  0  0  0  0
    1.6901    1.9819   -0.0010 C   0  0  0  0  0  0  0  0  0  0  0  0
    2.2612    1.9984   -1.1363 N   0  0  0  0  0  0  0  0  0  0  0  0
    3.5212    2.5246   -1.3323 C   0  0  0  0  0  0  0  0  0  0  0  0
    3.7426    3.2082   -2.5407 C   0  0  0  0  0  0  0  0  0  0  0  0
    4.9770    3.7291   -2.8650 C   0  0  0  0  0  0  0  0  0  0  0  0
    6.0070    3.5208   -1.9659 C   0  0  0  0  0  0  0  0  0  0  0  0
    7.3413    3.8712   -1.9672 N   0  0  0  0  0  0  0  0  0  0  0  0
    7.8639    3.3729   -0.8061 C   0  0  0  0  0  0  0  0  0  0  0  0
    9.1506    3.6004   -0.5488 O   0  0  0  0  0  0  0  0  0  0  0  0
    9.6389    3.0247    0.6600 C   0  0  0  0  0  0  0  0  0  0  0  0
    9.8784    1.5244    0.5221 C   0  0  0  0  0  0  0  0  0  0  0  0
   10.3804    0.9272    1.8333 C   0  0  0  0  0  0  0  0  0  0  0  0
   10.7348   -0.5561    1.7176 C   0  0  0  0  0  0  0  0  0  0  0  0
    9.5358   -1.4674    1.4469 C   0  0  0  0  0  0  0  0  0  0  0  0
    8.5289   -1.5091    2.6076 C   0  0  0  0  0  0  0  0  0  0  0  0
    7.1263   -1.0387    2.2173 C   0  0  0  0  0  0  0  0  0  0  0  0
    6.4108   -2.0464    1.3190 C   0  0  0  0  0  0  0  0  0  0  0  0
    5.0419   -1.5673    0.8341 C   0  0  0  0  0  0  0  0  0  0  0  0
    4.0132   -1.4588    1.9581 C   0  0  0  0  0  0  0  0  0  0  0  0
    2.6266   -1.0447    1.4638 C   0  0  0  0  0  0  0  0  0  0  0  0
    1.8957   -2.1414    0.6997 C   0  0  0  0  0  0  0  0  0  0  0  0
    7.0060    2.7356   -0.0692 N   0  0  0  0  0  0  0  0  0  0  0  0
    5.8139    2.8092   -0.7605 C   0  0  0  0  0  0  0  0  0  0  0  0
    4.5632    2.3182   -0.4281 C   0  0  0  0  0  0  0  0  0  0  0  0
   -0.1957    1.3064    1.4507 C   0  0  0  0  0  0  0  0  0  0  0  0
    0.4227    1.9259    2.4895 O   0  0  0  0  0  0  0  0  0  0  0  0
   -1.4095    0.6561    1.6355 C   0  0  0  0  0  0  0  0  0  0  0  0
  -15.1041   -2.0017   -3.7265 H   0  0  0  0  0  0  0  0  0  0  0  0
  -14.4828   -3.6527   -3.6895 H   0  0  0  0  0  0  0  0  0  0  0  0
  -14.8172   -2.8029   -2.1810 H   0  0  0  0  0  0  0  0  0  0  0  0
  -12.6647   -2.0238   -4.2065 H   0  0  0  0  0  0  0  0  0  0  0  0
  -13.0117   -1.1657   -2.7044 H   0  0  0  0  0  0  0  0  0  0  0  0
  -12.3919   -3.1688   -1.3928 H   0  0  0  0  0  0  0  0  0  0  0  0
  -12.1497   -4.0833   -2.8802 H   0  0  0  0  0  0  0  0  0  0  0  0
  -10.3087   -2.5021   -3.5211 H   0  0  0  0  0  0  0  0  0  0  0  0
   -9.9902   -3.4461   -2.0672 H   0  0  0  0  0  0  0  0  0  0  0  0
  -10.6933   -1.4884   -0.6696 H   0  0  0  0  0  0  0  0  0  0  0  0
  -10.8897   -0.5345   -2.1402 H   0  0  0  0  0  0  0  0  0  0  0  0
   -8.2991   -1.8473   -1.2315 H   0  0  0  0  0  0  0  0  0  0  0  0
   -8.4947   -0.8876   -2.6985 H   0  0  0  0  0  0  0  0  0  0  0  0
   -8.8800    0.1151    0.1567 H   0  0  0  0  0  0  0  0  0  0  0  0
   -9.2081    1.0620   -1.2876 H   0  0  0  0  0  0  0  0  0  0  0  0
   -7.0396    1.6672   -0.3970 H   0  0  0  0  0  0  0  0  0  0  0  0
   -6.8663    0.9277   -1.9868 H   0  0  0  0  0  0  0  0  0  0  0  0
   -6.1226   -1.1882   -0.9615 H   0  0  0  0  0  0  0  0  0  0  0  0
   -5.1104    0.1685   -0.4969 H   0  0  0  0  0  0  0  0  0  0  0  0
   -7.2724   -1.1437    1.1982 H   0  0  0  0  0  0  0  0  0  0  0  0
   -6.4315    0.3352    1.6615 H   0  0  0  0  0  0  0  0  0  0  0  0
   -5.5375   -1.8011    2.6798 H   0  0  0  0  0  0  0  0  0  0  0  0
   -5.0261   -2.3075    1.0643 H   0  0  0  0  0  0  0  0  0  0  0  0
   -4.1020    0.3279    2.2561 H   0  0  0  0  0  0  0  0  0  0  0  0
   -3.2781   -1.2133    2.6241 H   0  0  0  0  0  0  0  0  0  0  0  0
   -1.9336   -0.4588   -1.5050 H   0  0  0  0  0  0  0  0  0  0  0  0
    0.2510    0.6998   -1.8318 H   0  0  0  0  0  0  0  0  0  0  0  0
    2.1131    2.4669    0.8856 H   0  0  0  0  0  0  0  0  0  0  0  0
    2.9039    3.3372   -3.2068 H   0  0  0  0  0  0  0  0  0  0  0  0
    5.1336    4.2697   -3.7865 H   0  0  0  0  0  0  0  0  0  0  0  0
    7.8422    4.3930   -2.6643 H   0  0  0  0  0  0  0  0  0  0  0  0
    8.9179    3.2142    1.4617 H   0  0  0  0  0  0  0  0  0  0  0  0
   10.5716    3.5555    0.8656 H   0  0  0  0  0  0  0  0  0  0  0  0
   10.6060    1.3486   -0.2737 H   0  0  0  0  0  0  0  0  0  0  0  0
    8.9336    1.0630    0.2353 H   0  0  0  0  0  0  0  0  0  0  0  0
   11.2721    1.4736    2.1520 H   0  0  0  0  0  0  0  0  0  0  0  0
    9.6171    1.0666    2.5998 H   0  0  0  0  0  0  0  0  0  0  0  0
   11.2170   -0.8747    2.6452 H   0  0  0  0  0  0  0  0  0  0  0  0
   11.4616   -0.6812    0.9110 H   0  0  0  0  0  0  0  0  0  0  0  0
    9.9149   -2.4724    1.2505 H   0  0  0  0  0  0  0  0  0  0  0  0
    9.0363   -1.1322    0.5384 H   0  0  0  0  0  0  0  0  0  0  0  0
    8.8937   -0.8832    3.4240 H   0  0  0  0  0  0  0  0  0  0  0  0
    8.4556   -2.5265    2.9983 H   0  0  0  0  0  0  0  0  0  0  0  0
    7.1875   -0.0749    1.7075 H   0  0  0  0  0  0  0  0  0  0  0  0
    6.5443   -0.8953    3.1297 H   0  0  0  0  0  0  0  0  0  0  0  0
    6.2910   -2.9882    1.8616 H   0  0  0  0  0  0  0  0  0  0  0  0
    7.0347   -2.2504    0.4459 H   0  0  0  0  0  0  0  0  0  0  0  0
    5.1523   -0.5953    0.3483 H   0  0  0  0  0  0  0  0  0  0  0  0
    4.6771   -2.2713    0.0836 H   0  0  0  0  0  0  0  0  0  0  0  0
    3.9403   -2.4188    2.4763 H   0  0  0  0  0  0  0  0  0  0  0  0
    4.3545   -0.7162    2.6818 H   0  0  0  0  0  0  0  0  0  0  0  0
    2.7219   -0.1687    0.8205 H   0  0  0  0  0  0  0  0  0  0  0  0
    2.0187   -0.7548    2.3248 H   0  0  0  0  0  0  0  0  0  0  0  0
    2.4339   -2.4094   -0.2053 H   0  0  0  0  0  0  0  0  0  0  0  0
    1.7903   -3.0327    1.3157 H   0  0  0  0  0  0  0  0  0  0  0  0
    0.9039   -1.7982    0.4120 H   0  0  0  0  0  0  0  0  0  0  0  0
    4.4075    1.7702    0.4876 H   0  0  0  0  0  0  0  0  0  0  0  0
   -0.1032    1.8250    3.2923 H   0  0  0  0  0  0  0  0  0  0  0  0
   -1.8487    0.6535    2.6237 H   0  0  0  0  0  0  0  0  0  0  0  0
  1  2  1  0  0  0  0
  2  3  1  0  0  0  0
  3  4  1  0  0  0  0
  4  5  1  0  0  0  0
  5  6  1  0  0  0  0
  6  7  1  0  0  0  0
  7  8  1  0  0  0  0
  8  9  1  0  0  0  0
  9 10  1  0  0  0  0
 10 11  1  0  0  0  0
 11 12  1  0  0  0  0
 12 13  1  0  0  0  0
 13 14  1  0  0  0  0
 14 15  2  0  0  0  0
 15 16  1  0  0  0  0
 16 17  2  0  0  0  0
 17 18  1  0  0  0  0
 18 19  2  0  0  0  0
 19 20  1  0  0  0  0
 20 21  2  0  0  0  0
 21 22  1  0  0  0  0
 22 23  2  0  0  0  0
 23 24  1  0  0  0  0
 24 25  1  0  0  0  0
 25 26  1  0  0  0  0
 26 27  1  0  0  0  0
 27 28  1  0  0  0  0
 28 29  1  0  0  0  0
 29 30  1  0  0  0  0
 30 31  1  0  0  0  0
 31 32  1  0  0  0  0
 32 33  1  0  0  0  0
 33 34  1  0  0  0  0
 34 35  1  0  0  0  0
 35 36  1  0  0  0  0
 36 37  1  0  0  0  0
 37 38  1  0  0  0  0
 25 39  2  0  0  0  0
 39 40  1  0  0  0  0
 40 41  2  0  0  0  0
 17 42  1  0  0  0  0
 42 43  1  0  0  0  0
 42 44  2  0  0  0  0
 44 14  1  0  0  0  0
 41 20  1  0  0  0  0
 40 23  1  0  0  0  0
  1 45  1  0  0  0  0
  1 46  1  0  0  0  0
  1 47  1  0  0  0  0
  2 48  1  0  0  0  0
  2 49  1  0  0  0  0
  3 50  1  0  0  0  0
  3 51  1  0  0  0  0
  4 52  1  0  0  0  0
  4 53  1  0  0  0  0
  5 54  1  0  0  0  0
  5 55  1  0  0  0  0
  6 56  1  0  0  0  0
  6 57  1  0  0  0  0
  7 58  1  0  0  0  0
  7 59  1  0  0  0  0
  8 60  1  0  0  0  0
  8 61  1  0  0  0  0
  9 62  1  0  0  0  0
  9 63  1  0  0  0  0
 10 64  1  0  0  0  0
 10 65  1  0  0  0  0
 11 66  1  0  0  0  0
 11 67  1  0  0  0  0
 12 68  1  0  0  0  0
 12 69  1  0  0  0  0
 15 70  1  0  0  0  0
 16 71  1  0  0  0  0
 18 72  1  0  0  0  0
 21 73  1  0  0  0  0
 22 74  1  0  0  0  0
 24 75  1  0  0  0  0
 27 76  1  0  0  0  0
 27 77  1  0  0  0  0
 28 78  1  0  0  0  0
 28 79  1  0  0  0  0
 29 80  1  0  0  0  0
 29 81  1  0  0  0  0
 30 82  1  0  0  0  0
 30 83  1  0  0  0  0
 31 84  1  0  0  0  0
 31 85  1  0  0  0  0
 32 86  1  0  0  0  0
 32 87  1  0  0  0  0
 33 88  1  0  0  0  0
 33 89  1  0  0  0  0
 34 90  1  0  0  0  0
 34 91  1  0  0  0  0
 35 92  1  0  0  0  0
 35 93  1  0  0  0  0
 36 94  1  0  0  0  0
 36 95  1  0  0  0  0
 37 96  1  0  0  0  0
 37 97  1  0  0  0  0
 38 98  1  0  0  0  0
 38 99  1  0  0  0  0
 38100  1  0  0  0  0
 41101  1  0  0  0  0
 43102  1  0  0  0  0
 44103  1  0  0  0  0
M  END
