
  xtb     03212212173D
 energy: -54.278145117046 gnorm: 0.000088472586 xtb: 6.4.1 (afa7bdf)
 35 37  0     0  0            999 V2000
    6.6935    0.1182    0.5935 C   0  0  0  0  0  0  0  0  0  0  0  0
    5.7480   -0.6158    1.3324 O   0  0  0  0  0  0  0  0  0  0  0  0
    4.4288   -0.4617    1.0398 C   0  0  0  0  0  0  0  0  0  0  0  0
    3.5399   -1.2118    1.8154 C   0  0  0  0  0  0  0  0  0  0  0  0
    2.1853   -1.1270    1.6017 C   0  0  0  0  0  0  0  0  0  0  0  0
    1.6593   -0.3152    0.5883 C   0  0  0  0  0  0  0  0  0  0  0  0
    0.2218   -0.2740    0.4035 C   0  0  0  0  0  0  0  0  0  0  0  0
   -0.4687   -0.1376   -0.7479 C   0  0  0  0  0  0  0  0  0  0  0  0
    0.1395   -0.0732   -2.1149 C   0  0  0  0  0  0  0  0  0  0  0  0
   -1.9076   -0.0880   -0.6666 C   0  0  0  0  0  0  0  0  0  0  0  0
   -2.5911   -0.1493    0.4205 N   0  0  0  0  0  0  0  0  0  0  0  0
   -3.9288   -0.0654    0.2111 C   0  0  0  0  0  0  0  0  0  0  0  0
   -4.9161   -0.1074    1.1938 C   0  0  0  0  0  0  0  0  0  0  0  0
   -6.2370   -0.0074    0.8156 C   0  0  0  0  0  0  0  0  0  0  0  0
   -6.5954    0.1336   -0.5243 C   0  0  0  0  0  0  0  0  0  0  0  0
   -5.6363    0.1769   -1.5172 C   0  0  0  0  0  0  0  0  0  0  0  0
   -4.3072    0.0772   -1.1451 C   0  0  0  0  0  0  0  0  0  0  0  0
   -2.8903    0.0952   -2.1438 S   0  0  0  0  0  0  0  0  0  0  0  0
    2.5541    0.4456   -0.1622 C   0  0  0  0  0  0  0  0  0  0  0  0
    3.9183    0.3804    0.0579 C   0  0  0  0  0  0  0  0  0  0  0  0
    7.6657   -0.1689    0.9911 H   0  0  0  0  0  0  0  0  0  0  0  0
    6.6518   -0.1294   -0.4722 H   0  0  0  0  0  0  0  0  0  0  0  0
    6.5553    1.1967    0.7221 H   0  0  0  0  0  0  0  0  0  0  0  0
    3.9461   -1.8486    2.5854 H   0  0  0  0  0  0  0  0  0  0  0  0
    1.5106   -1.7104    2.2106 H   0  0  0  0  0  0  0  0  0  0  0  0
   -0.3653   -0.4021    1.3038 H   0  0  0  0  0  0  0  0  0  0  0  0
   -0.4729   -0.6327   -2.8210 H   0  0  0  0  0  0  0  0  0  0  0  0
    0.1897    0.9568   -2.4690 H   0  0  0  0  0  0  0  0  0  0  0  0
    1.1409   -0.4948   -2.1096 H   0  0  0  0  0  0  0  0  0  0  0  0
   -4.6269   -0.2166    2.2268 H   0  0  0  0  0  0  0  0  0  0  0  0
   -7.0112   -0.0384    1.5678 H   0  0  0  0  0  0  0  0  0  0  0  0
   -7.6387    0.2099   -0.7912 H   0  0  0  0  0  0  0  0  0  0  0  0
   -5.9094    0.2852   -2.5555 H   0  0  0  0  0  0  0  0  0  0  0  0
    2.1823    1.1376   -0.9009 H   0  0  0  0  0  0  0  0  0  0  0  0
    4.5722    0.9963   -0.5399 H   0  0  0  0  0  0  0  0  0  0  0  0
  1  2  1  0  0  0  0
  2  3  1  0  0  0  0
  3  4  2  0  0  0  0
  4  5  1  0  0  0  0
  5  6  2  0  0  0  0
  6  7  1  0  0  0  0
  7  8  2  0  0  0  0
  8  9  1  0  0  0  0
  8 10  1  0  0  0  0
 10 11  2  0  0  0  0
 11 12  1  0  0  0  0
 12 13  2  0  0  0  0
 13 14  1  0  0  0  0
 14 15  2  0  0  0  0
 15 16  1  0  0  0  0
 16 17  2  0  0  0  0
 17 18  1  0  0  0  0
  6 19  1  0  0  0  0
 19 20  2  0  0  0  0
 20  3  1  0  0  0  0
 18 10  1  0  0  0  0
 17 12  1  0  0  0  0
  1 21  1  0  0  0  0
  1 22  1  0  0  0  0
  1 23  1  0  0  0  0
  4 24  1  0  0  0  0
  5 25  1  0  0  0  0
  7 26  1  0  0  0  0
  9 27  1  0  0  0  0
  9 28  1  0  0  0  0
  9 29  1  0  0  0  0
 13 30  1  0  0  0  0
 14 31  1  0  0  0  0
 15 32  1  0  0  0  0
 16 33  1  0  0  0  0
 19 34  1  0  0  0  0
 20 35  1  0  0  0  0
M  END
