
  xtb     03212210323D
 energy: -94.250174327026 gnorm: 0.000106083771 xtb: 6.4.1 (afa7bdf)
 58 61  0     0  0            999 V2000
   -3.6729    2.6507    0.6552 C   0  0  0  0  0  0  0  0  0  0  0  0
   -4.2323    1.3266    0.1306 C   0  0  0  0  0  0  0  0  0  0  0  0
   -5.2819    1.6144   -0.9430 C   0  0  0  0  0  0  0  0  0  0  0  0
   -3.1032    0.4750   -0.4652 C   0  0  0  0  0  0  0  0  0  0  0  0
   -2.1346   -0.0181    0.5695 C   0  0  0  0  0  0  0  0  0  0  0  0
   -0.8006   -0.2906    0.1137 C   0  0  0  0  0  0  0  0  0  0  0  0
    0.2311   -0.7324    0.8595 C   0  0  0  0  0  0  0  0  0  0  0  0
    1.5571   -0.9636    0.3585 C   0  0  0  0  0  0  0  0  0  0  0  0
    2.4738   -1.8527    0.8966 C   0  0  0  0  0  0  0  0  0  0  0  0
    3.5640   -1.8511    0.1001 N   0  0  0  0  0  0  0  0  0  0  0  0
    4.7505   -2.5833    0.2351 C   0  0  0  0  0  0  0  0  0  0  0  0
    4.8762   -3.5981    1.1781 C   0  0  0  0  0  0  0  0  0  0  0  0
    6.0675   -4.2936    1.2779 C   0  0  0  0  0  0  0  0  0  0  0  0
    7.1313   -3.9897    0.4451 C   0  0  0  0  0  0  0  0  0  0  0  0
    7.0014   -2.9824   -0.4975 C   0  0  0  0  0  0  0  0  0  0  0  0
    5.8179   -2.2788   -0.6057 C   0  0  0  0  0  0  0  0  0  0  0  0
    3.4178   -1.0016   -0.9152 N   0  0  0  0  0  0  0  0  0  0  0  0
    2.2266   -0.4425   -0.7922 C   0  0  0  0  0  0  0  0  0  0  0  0
    1.8148    0.5952   -1.7263 C   0  0  0  0  0  0  0  0  0  0  0  0
    2.1584    0.4798   -3.0750 C   0  0  0  0  0  0  0  0  0  0  0  0
    1.7822    1.4517   -3.9773 C   0  0  0  0  0  0  0  0  0  0  0  0
    1.0607    2.5533   -3.5296 C   0  0  0  0  0  0  0  0  0  0  0  0
    0.6432    3.5588   -4.4682 N   0  0  0  0  0  4  0  0  0  0  0  0
   -0.0546    4.4617   -4.0529 O   0  0  0  0  0  0  0  0  0  0  0  0
    1.0066    3.4430   -5.6201 O   0  0  0  0  0  1  0  0  0  0  0  0
    0.7396    2.7001   -2.1835 C   0  0  0  0  0  0  0  0  0  0  0  0
    1.1207    1.7259   -1.2871 C   0  0  0  0  0  0  0  0  0  0  0  0
   -2.5392   -0.1770    1.8579 C   0  0  0  0  0  0  0  0  0  0  0  0
   -3.8644    0.1023    2.2903 C   0  0  0  0  0  0  0  0  0  0  0  0
   -4.2166   -0.0427    3.6093 C   0  0  0  0  0  0  0  0  0  0  0  0
   -5.5152    0.2325    4.0791 C   0  0  0  0  0  0  0  0  0  0  0  0
   -6.5722    0.4603    4.4646 N   0  0  0  0  0  0  0  0  0  0  0  0
   -3.3038   -0.4810    4.5890 C   0  0  0  0  0  0  0  0  0  0  0  0
   -2.5570   -0.8392    5.3840 N   0  0  0  0  0  0  0  0  0  0  0  0
   -4.8750    0.5332    1.2759 C   0  0  0  0  0  0  0  0  0  0  0  0
   -4.4651    3.2418    1.1090 H   0  0  0  0  0  0  0  0  0  0  0  0
   -3.2420    3.2280   -0.1599 H   0  0  0  0  0  0  0  0  0  0  0  0
   -2.9002    2.4838    1.4025 H   0  0  0  0  0  0  0  0  0  0  0  0
   -4.8381    2.1632   -1.7705 H   0  0  0  0  0  0  0  0  0  0  0  0
   -6.0907    2.2135   -0.5315 H   0  0  0  0  0  0  0  0  0  0  0  0
   -5.7053    0.6906   -1.3323 H   0  0  0  0  0  0  0  0  0  0  0  0
   -3.5384   -0.3961   -0.9686 H   0  0  0  0  0  0  0  0  0  0  0  0
   -2.5693    1.0507   -1.2251 H   0  0  0  0  0  0  0  0  0  0  0  0
   -0.6291   -0.1134   -0.9402 H   0  0  0  0  0  0  0  0  0  0  0  0
    0.0909   -0.9810    1.9028 H   0  0  0  0  0  0  0  0  0  0  0  0
    2.3875   -2.4635    1.7709 H   0  0  0  0  0  0  0  0  0  0  0  0
    4.0553   -3.8560    1.8280 H   0  0  0  0  0  0  0  0  0  0  0  0
    6.1620   -5.0802    2.0110 H   0  0  0  0  0  0  0  0  0  0  0  0
    8.0572   -4.5374    0.5300 H   0  0  0  0  0  0  0  0  0  0  0  0
    7.8265   -2.7419   -1.1504 H   0  0  0  0  0  0  0  0  0  0  0  0
    5.6966   -1.4903   -1.3306 H   0  0  0  0  0  0  0  0  0  0  0  0
    2.7174   -0.3841   -3.3971 H   0  0  0  0  0  0  0  0  0  0  0  0
    2.0291    1.3751   -5.0252 H   0  0  0  0  0  0  0  0  0  0  0  0
    0.2009    3.5790   -1.8635 H   0  0  0  0  0  0  0  0  0  0  0  0
    0.8912    1.8389   -0.2388 H   0  0  0  0  0  0  0  0  0  0  0  0
   -1.8440   -0.5176    2.6117 H   0  0  0  0  0  0  0  0  0  0  0  0
   -5.6657    1.1191    1.7502 H   0  0  0  0  0  0  0  0  0  0  0  0
   -5.3439   -0.3676    0.8624 H   0  0  0  0  0  0  0  0  0  0  0  0
  1  2  1  0  0  0  0
  2  3  1  0  0  0  0
  2  4  1  0  0  0  0
  4  5  1  0  0  0  0
  5  6  1  0  0  0  0
  6  7  2  0  0  0  0
  7  8  1  0  0  0  0
  8  9  2  0  0  0  0
  9 10  1  0  0  0  0
 10 11  1  0  0  0  0
 11 12  2  0  0  0  0
 12 13  1  0  0  0  0
 13 14  2  0  0  0  0
 14 15  1  0  0  0  0
 15 16  2  0  0  0  0
 10 17  1  0  0  0  0
 17 18  2  0  0  0  0
 18 19  1  0  0  0  0
 19 20  2  0  0  0  0
 20 21  1  0  0  0  0
 21 22  2  0  0  0  0
 22 23  1  0  0  0  0
 23 24  2  0  0  0  0
 23 25  1  0  0  0  0
 22 26  1  0  0  0  0
 26 27  2  0  0  0  0
  5 28  2  0  0  0  0
 28 29  1  0  0  0  0
 29 30  2  0  0  0  0
 30 31  1  0  0  0  0
 31 32  3  0  0  0  0
 30 33  1  0  0  0  0
 33 34  3  0  0  0  0
 29 35  1  0  0  0  0
 35  2  1  0  0  0  0
 18  8  1  0  0  0  0
 27 19  1  0  0  0  0
 16 11  1  0  0  0  0
  1 36  1  0  0  0  0
  1 37  1  0  0  0  0
  1 38  1  0  0  0  0
  3 39  1  0  0  0  0
  3 40  1  0  0  0  0
  3 41  1  0  0  0  0
  4 42  1  0  0  0  0
  4 43  1  0  0  0  0
  6 44  1  0  0  0  0
  7 45  1  0  0  0  0
  9 46  1  0  0  0  0
 12 47  1  0  0  0  0
 13 48  1  0  0  0  0
 14 49  1  0  0  0  0
 15 50  1  0  0  0  0
 16 51  1  0  0  0  0
 20 52  1  0  0  0  0
 21 53  1  0  0  0  0
 26 54  1  0  0  0  0
 27 55  1  0  0  0  0
 28 56  1  0  0  0  0
 35 57  1  0  0  0  0
 35 58  1  0  0  0  0
M  CHG  1  23   1
M  CHG  1  25  -1
M  END
