
  xtb     03212210413D
 energy: -61.658025017562 gnorm: 0.000291109249 xtb: 6.4.1 (afa7bdf)
 35 38  0     0  0            999 V2000
    5.0327   -1.2673   -0.2472 C   0  0  0  0  0  0  0  0  0  0  0  0
    4.0184   -0.3878    0.1912 O   0  0  0  0  0  0  0  0  0  0  0  0
    2.7692   -0.6846   -0.1295 C   0  0  0  0  0  0  0  0  0  0  0  0
    2.2483   -1.7696   -0.8737 C   0  0  0  0  0  0  0  0  0  0  0  0
    0.8858   -1.5994   -0.9141 C   0  0  0  0  0  0  0  0  0  0  0  0
    0.5828   -0.4223   -0.1898 C   0  0  0  0  0  0  0  0  0  0  0  0
    1.7755    0.1118    0.2680 N   0  0  0  0  0  0  0  0  0  0  0  0
    1.9128    1.4455    1.0550 B   0  0  0  0  0  4  0  0  0  0  0  0
    2.6769    2.3361    0.3354 F   0  0  0  0  0  0  0  0  0  0  0  0
    2.4736    1.2127    2.2898 F   0  0  0  0  0  0  0  0  0  0  0  0
    0.4797    1.9982    1.2281 N   0  0  0  0  0  4  0  0  0  0  0  0
    0.1437    3.1055    1.8861 C   0  0  0  0  0  0  0  0  0  0  0  0
   -1.2433    3.2657    1.8778 C   0  0  0  0  0  0  0  0  0  0  0  0
   -1.7650    2.1964    1.1785 C   0  0  0  0  0  0  0  0  0  0  0  0
   -0.6719    1.4048    0.7646 C   0  0  0  0  0  0  0  0  0  0  0  0
   -0.6373    0.2000    0.0502 C   0  0  0  0  0  0  0  0  0  0  0  0
   -1.8846   -0.4021   -0.4367 C   0  0  0  0  0  0  0  0  0  0  0  0
   -2.2031   -1.7208   -0.1198 C   0  0  0  0  0  0  0  0  0  0  0  0
   -3.3839   -2.2813   -0.5707 C   0  0  0  0  0  0  0  0  0  0  0  0
   -4.2550   -1.5384   -1.3504 C   0  0  0  0  0  0  0  0  0  0  0  0
   -3.9423   -0.2285   -1.6745 C   0  0  0  0  0  0  0  0  0  0  0  0
   -2.7679    0.3402   -1.2175 C   0  0  0  0  0  0  0  0  0  0  0  0
    4.8884   -2.2721    0.1603 H   0  0  0  0  0  0  0  0  0  0  0  0
    5.9650   -0.8516    0.1290 H   0  0  0  0  0  0  0  0  0  0  0  0
    5.0679   -1.3175   -1.3392 H   0  0  0  0  0  0  0  0  0  0  0  0
    2.8147   -2.5617   -1.3210 H   0  0  0  0  0  0  0  0  0  0  0  0
    0.1703   -2.2256   -1.4099 H   0  0  0  0  0  0  0  0  0  0  0  0
    0.8967    3.7254    2.3331 H   0  0  0  0  0  0  0  0  0  0  0  0
   -1.7854    4.0691    2.3361 H   0  0  0  0  0  0  0  0  0  0  0  0
   -2.7983    1.9820    0.9882 H   0  0  0  0  0  0  0  0  0  0  0  0
   -1.5319   -2.2915    0.5044 H   0  0  0  0  0  0  0  0  0  0  0  0
   -3.6261   -3.3013   -0.3114 H   0  0  0  0  0  0  0  0  0  0  0  0
   -5.1754   -1.9787   -1.7036 H   0  0  0  0  0  0  0  0  0  0  0  0
   -4.6168    0.3529   -2.2856 H   0  0  0  0  0  0  0  0  0  0  0  0
   -2.5142    1.3556   -1.4821 H   0  0  0  0  0  0  0  0  0  0  0  0
  1  2  1  0  0  0  0
  2  3  1  0  0  0  0
  3  4  2  0  0  0  0
  4  5  1  0  0  0  0
  5  6  2  0  0  0  0
  6  7  1  0  0  0  0
  7  8  1  0  0  0  0
  8  9  1  0  0  0  0
  8 10  1  0  0  0  0
  8 11  1  0  0  0  0
 11 12  2  0  0  0  0
 12 13  1  0  0  0  0
 13 14  2  0  0  0  0
 14 15  1  0  0  0  0
 15 16  2  0  0  0  0
 16 17  1  0  0  0  0
 17 18  2  0  0  0  0
 18 19  1  0  0  0  0
 19 20  2  0  0  0  0
 20 21  1  0  0  0  0
 21 22  2  0  0  0  0
  7  3  1  0  0  0  0
 15 11  1  0  0  0  0
 22 17  1  0  0  0  0
 16  6  1  0  0  0  0
  1 23  1  0  0  0  0
  1 24  1  0  0  0  0
  1 25  1  0  0  0  0
  4 26  1  0  0  0  0
  5 27  1  0  0  0  0
 12 28  1  0  0  0  0
 13 29  1  0  0  0  0
 14 30  1  0  0  0  0
 18 31  1  0  0  0  0
 19 32  1  0  0  0  0
 20 33  1  0  0  0  0
 21 34  1  0  0  0  0
 22 35  1  0  0  0  0
M  CHG  1   8  -1
M  CHG  1  11   1
M  END
