
  xtb     03212211083D
 energy: -99.984042584787 gnorm: 0.000132343138 xtb: 6.4.1 (afa7bdf)
 52 55  0     0  0            999 V2000
    2.0469    3.6410    1.5065 C   0  0  0  0  0  0  0  0  0  0  0  0
    1.1020    2.7255    2.2702 C   0  0  0  0  0  0  0  0  0  0  0  0
    0.7070    1.6051    1.4759 O   0  0  0  0  0  0  0  0  0  0  0  0
   -0.3975    1.7533    0.7330 C   0  0  0  0  0  0  0  0  0  0  0  0
   -1.1067    2.7257    0.7463 O   0  0  0  0  0  0  0  0  0  0  0  0
   -0.6642    0.5409   -0.0579 C   0  0  0  0  0  0  0  0  0  0  0  0
    0.2644   -0.3656   -0.6244 C   0  0  0  0  0  0  0  0  0  0  0  0
    1.7149   -0.2653   -0.5871 C   0  0  0  0  0  0  0  0  0  0  0  0
    2.5341   -1.3113   -0.3067 C   0  0  0  0  0  0  0  0  0  0  0  0
    1.8838   -2.8615    0.0221 Cl  0  0  0  0  0  0  0  0  0  0  0  0
    3.9586   -1.1342   -0.2454 C   0  0  0  0  0  0  0  0  0  0  0  0
    4.8702   -2.1544    0.0471 C   0  0  0  0  0  0  0  0  0  0  0  0
    6.2188   -1.8876    0.1061 C   0  0  0  0  0  0  0  0  0  0  0  0
    6.6896   -0.5976   -0.1226 C   0  0  0  0  0  0  0  0  0  0  0  0
    5.8115    0.4245   -0.4140 C   0  0  0  0  0  0  0  0  0  0  0  0
    4.4450    0.1624   -0.4805 C   0  0  0  0  0  0  0  0  0  0  0  0
    3.6251    1.1935   -0.7838 O   0  0  0  0  0  0  0  0  0  0  0  0
    2.2743    1.0571   -0.8900 C   0  0  0  0  0  0  0  0  0  0  0  0
    1.6317    2.0123   -1.2390 O   0  0  0  0  0  0  0  0  0  0  0  0
   -0.3751   -1.3414   -1.2408 N   0  0  0  0  0  0  0  0  0  0  0  0
   -1.6772   -1.0991   -1.1273 N   0  0  0  0  0  0  0  0  0  0  0  0
   -2.5714   -2.0361   -1.6747 C   0  0  0  0  0  0  0  0  0  0  0  0
   -3.8051   -1.6676   -2.1965 C   0  0  0  0  0  0  0  0  0  0  0  0
   -4.6271   -2.6420   -2.7367 C   0  0  0  0  0  0  0  0  0  0  0  0
   -4.2326   -3.9677   -2.7778 C   0  0  0  0  0  0  0  0  0  0  0  0
   -2.9896   -4.3162   -2.2706 C   0  0  0  0  0  0  0  0  0  0  0  0
   -2.4744   -5.9626   -2.3212 Cl  0  0  0  0  0  0  0  0  0  0  0  0
   -2.1536   -3.3635   -1.7180 C   0  0  0  0  0  0  0  0  0  0  0  0
   -1.9086    0.0311   -0.4083 C   0  0  0  0  0  0  0  0  0  0  0  0
   -3.2102    0.6089    0.0163 C   0  0  0  0  0  0  0  0  0  0  0  0
   -4.1220    0.8921   -0.7176 O   0  0  0  0  0  0  0  0  0  0  0  0
   -3.1988    0.7784    1.3305 O   0  0  0  0  0  0  0  0  0  0  0  0
   -4.2754    1.5109    1.9280 C   0  0  0  0  0  0  0  0  0  0  0  0
   -3.7049    2.6918    2.6952 C   0  0  0  0  0  0  0  0  0  0  0  0
    2.2908    4.5048    2.1187 H   0  0  0  0  0  0  0  0  0  0  0  0
    1.5718    3.9742    0.5872 H   0  0  0  0  0  0  0  0  0  0  0  0
    2.9633    3.1160    1.2485 H   0  0  0  0  0  0  0  0  0  0  0  0
    1.5872    2.2967    3.1507 H   0  0  0  0  0  0  0  0  0  0  0  0
    0.2028    3.2742    2.5697 H   0  0  0  0  0  0  0  0  0  0  0  0
    4.4953   -3.1498    0.2252 H   0  0  0  0  0  0  0  0  0  0  0  0
    6.9144   -2.6809    0.3311 H   0  0  0  0  0  0  0  0  0  0  0  0
    7.7481   -0.3944   -0.0737 H   0  0  0  0  0  0  0  0  0  0  0  0
    6.1535    1.4301   -0.5987 H   0  0  0  0  0  0  0  0  0  0  0  0
   -4.1182   -0.6369   -2.1856 H   0  0  0  0  0  0  0  0  0  0  0  0
   -5.5868   -2.3594   -3.1403 H   0  0  0  0  0  0  0  0  0  0  0  0
   -4.8741   -4.7232   -3.2025 H   0  0  0  0  0  0  0  0  0  0  0  0
   -1.1842   -3.6298   -1.3296 H   0  0  0  0  0  0  0  0  0  0  0  0
   -4.9528    1.8434    1.1356 H   0  0  0  0  0  0  0  0  0  0  0  0
   -4.8028    0.8192    2.5923 H   0  0  0  0  0  0  0  0  0  0  0  0
   -3.0924    2.3429    3.5226 H   0  0  0  0  0  0  0  0  0  0  0  0
   -4.5149    3.3032    3.0822 H   0  0  0  0  0  0  0  0  0  0  0  0
   -3.0843    3.2885    2.0313 H   0  0  0  0  0  0  0  0  0  0  0  0
  1  2  1  0  0  0  0
  2  3  1  0  0  0  0
  3  4  1  0  0  0  0
  4  5  2  0  0  0  0
  4  6  1  0  0  0  0
  6  7  1  0  0  0  0
  7  8  1  0  0  0  0
  8  9  2  0  0  0  0
  9 10  1  0  0  0  0
  9 11  1  0  0  0  0
 11 12  2  0  0  0  0
 12 13  1  0  0  0  0
 13 14  2  0  0  0  0
 14 15  1  0  0  0  0
 15 16  2  0  0  0  0
 16 17  1  0  0  0  0
 17 18  1  0  0  0  0
 18 19  2  0  0  0  0
  7 20  2  0  0  0  0
 20 21  1  0  0  0  0
 21 22  1  0  0  0  0
 22 23  2  0  0  0  0
 23 24  1  0  0  0  0
 24 25  2  0  0  0  0
 25 26  1  0  0  0  0
 26 27  1  0  0  0  0
 26 28  2  0  0  0  0
 21 29  1  0  0  0  0
 29 30  1  0  0  0  0
 30 31  2  0  0  0  0
 30 32  1  0  0  0  0
 32 33  1  0  0  0  0
 33 34  1  0  0  0  0
 29  6  2  0  0  0  0
 18  8  1  0  0  0  0
 28 22  1  0  0  0  0
 16 11  1  0  0  0  0
  1 35  1  0  0  0  0
  1 36  1  0  0  0  0
  1 37  1  0  0  0  0
  2 38  1  0  0  0  0
  2 39  1  0  0  0  0
 12 40  1  0  0  0  0
 13 41  1  0  0  0  0
 14 42  1  0  0  0  0
 15 43  1  0  0  0  0
 23 44  1  0  0  0  0
 24 45  1  0  0  0  0
 25 46  1  0  0  0  0
 28 47  1  0  0  0  0
 33 48  1  0  0  0  0
 33 49  1  0  0  0  0
 34 50  1  0  0  0  0
 34 51  1  0  0  0  0
 34 52  1  0  0  0  0
M  END
