
  xtb     03212210583D
 energy: -140.153892820216 gnorm: 0.000203947651 xtb: 6.4.1 (afa7bdf)
 86 92  0     0  0            999 V2000
   11.2051    2.4832   -2.3788 O   0  0  0  0  0  0  0  0  0  0  0  0
   10.3260    2.9609   -1.7136 C   0  0  0  0  0  0  0  0  0  0  0  0
    9.8482    4.1930   -1.9339 O   0  0  0  0  0  0  0  0  0  0  0  0
    9.6347    2.3035   -0.5468 C   0  0  0  0  0  0  0  0  0  0  0  0
   10.0574    0.8479   -0.3684 C   0  0  0  0  0  0  0  0  0  0  0  0
    9.4391   -0.0376   -1.4547 C   0  0  0  0  0  0  0  0  0  0  0  0
    8.0274   -0.0277   -1.4245 O   0  0  0  0  0  0  0  0  0  0  0  0
    7.3633   -0.7547   -0.4811 C   0  0  0  0  0  0  0  0  0  0  0  0
    7.9484   -1.6156    0.4410 C   0  0  0  0  0  0  0  0  0  0  0  0
    7.1465   -2.3115    1.3319 C   0  0  0  0  0  0  0  0  0  0  0  0
    5.7751   -2.1615    1.3241 C   0  0  0  0  0  0  0  0  0  0  0  0
    5.1770   -1.3019    0.4035 C   0  0  0  0  0  0  0  0  0  0  0  0
    3.7095   -1.1501    0.3757 C   0  0  0  0  0  0  0  0  0  0  0  0
    3.0594   -0.6929    1.5307 C   0  0  0  0  0  0  0  0  0  0  0  0
    1.7218   -0.5714    1.6773 N   0  0  0  0  0  0  0  0  0  0  0  0
    1.5225   -0.0921    2.9245 C   0  0  0  0  0  0  0  0  0  0  0  0
    0.3031    0.1761    3.5374 C   0  0  0  0  0  0  0  0  0  0  0  0
   -0.9696    0.0380    3.0142 C   0  0  0  0  0  0  0  0  0  0  0  0
   -2.1945    0.3140    3.6834 C   0  0  0  0  0  0  0  0  0  0  0  0
   -3.2152    0.0555    2.8156 C   0  0  0  0  0  0  0  0  0  0  0  0
   -2.6398   -0.3840    1.5913 C   0  0  0  0  0  0  0  0  0  0  0  0
   -1.2932   -0.3815    1.7554 N   0  0  0  0  0  0  0  0  0  0  0  0
   -3.3215   -0.7312    0.4186 C   0  0  0  0  0  0  0  0  0  0  0  0
   -4.8050   -0.6979    0.4682 C   0  0  0  0  0  0  0  0  0  0  0  0
   -5.5003   -1.6985    1.1421 C   0  0  0  0  0  0  0  0  0  0  0  0
   -6.8799   -1.6685    1.1821 C   0  0  0  0  0  0  0  0  0  0  0  0
   -7.5903   -0.6532    0.5617 C   0  0  0  0  0  0  0  0  0  0  0  0
   -6.9033    0.3538   -0.1066 C   0  0  0  0  0  0  0  0  0  0  0  0
   -7.4864    1.4045   -0.7490 O   0  0  0  0  0  0  0  0  0  0  0  0
   -8.8957    1.5002   -0.7499 C   0  0  0  0  0  0  0  0  0  0  0  0
   -9.2635    2.7744   -1.5051 C   0  0  0  0  0  0  0  0  0  0  0  0
  -10.7817    2.9624   -1.6133 C   0  0  0  0  0  0  0  0  0  0  0  0
  -11.3783    3.1865   -0.2460 C   0  0  0  0  0  0  0  0  0  0  0  0
  -11.6608    2.3264    0.5442 O   0  0  0  0  0  0  0  0  0  0  0  0
  -11.5412    4.4869    0.0176 O   0  0  0  0  0  0  0  0  0  0  0  0
   -5.5095    0.3221   -0.1468 C   0  0  0  0  0  0  0  0  0  0  0  0
   -2.7099   -1.1225   -0.7604 C   0  0  0  0  0  0  0  0  0  0  0  0
   -1.3934   -1.2392   -0.9512 N   0  0  0  0  0  0  0  0  0  0  0  0
   -1.1587   -1.6737   -2.1905 C   0  0  0  0  0  0  0  0  0  0  0  0
    0.0667   -1.9399   -2.7606 C   0  0  0  0  0  0  0  0  0  0  0  0
    1.3423   -1.8388   -2.2073 C   0  0  0  0  0  0  0  0  0  0  0  0
    2.5487   -2.1947   -2.8741 C   0  0  0  0  0  0  0  0  0  0  0  0
    3.5861   -1.9885   -2.0123 C   0  0  0  0  0  0  0  0  0  0  0  0
    3.0411   -1.4883   -0.7983 C   0  0  0  0  0  0  0  0  0  0  0  0
    1.6861   -1.4182   -0.9657 N   0  0  0  0  0  0  0  0  0  0  0  0
   -2.4354   -1.8893   -2.9873 C   0  0  0  0  0  0  0  0  0  0  0  0
   -3.5200   -1.5034   -1.9870 C   0  0  0  0  0  0  0  0  0  0  0  0
    2.7880    0.1180    3.5987 C   0  0  0  0  0  0  0  0  0  0  0  0
    3.7490   -0.2547    2.7286 C   0  0  0  0  0  0  0  0  0  0  0  0
    5.9762   -0.6069   -0.4900 C   0  0  0  0  0  0  0  0  0  0  0  0
   10.3055    4.6053   -2.6838 H   0  0  0  0  0  0  0  0  0  0  0  0
    8.5568    2.3690   -0.7093 H   0  0  0  0  0  0  0  0  0  0  0  0
    9.8689    2.8905    0.3439 H   0  0  0  0  0  0  0  0  0  0  0  0
   11.1429    0.7697   -0.4371 H   0  0  0  0  0  0  0  0  0  0  0  0
    9.7378    0.5014    0.6154 H   0  0  0  0  0  0  0  0  0  0  0  0
    9.8257   -1.0609   -1.3848 H   0  0  0  0  0  0  0  0  0  0  0  0
    9.7013    0.3605   -2.4378 H   0  0  0  0  0  0  0  0  0  0  0  0
    9.0166   -1.7606    0.4766 H   0  0  0  0  0  0  0  0  0  0  0  0
    7.6096   -2.9815    2.0417 H   0  0  0  0  0  0  0  0  0  0  0  0
    5.1585   -2.7148    2.0160 H   0  0  0  0  0  0  0  0  0  0  0  0
    0.3566    0.5379    4.5556 H   0  0  0  0  0  0  0  0  0  0  0  0
   -2.2716    0.6644    4.6945 H   0  0  0  0  0  0  0  0  0  0  0  0
   -4.2678    0.1608    2.9920 H   0  0  0  0  0  0  0  0  0  0  0  0
   -0.6345   -0.6507    1.0373 H   0  0  0  0  0  0  0  0  0  0  0  0
   -4.9534   -2.4927    1.6275 H   0  0  0  0  0  0  0  0  0  0  0  0
   -7.4201   -2.4451    1.7034 H   0  0  0  0  0  0  0  0  0  0  0  0
   -8.6673   -0.6560    0.6113 H   0  0  0  0  0  0  0  0  0  0  0  0
   -9.2796    1.5401    0.2770 H   0  0  0  0  0  0  0  0  0  0  0  0
   -9.3363    0.6275   -1.2525 H   0  0  0  0  0  0  0  0  0  0  0  0
   -8.8153    3.6303   -0.9980 H   0  0  0  0  0  0  0  0  0  0  0  0
   -8.8372    2.7188   -2.5077 H   0  0  0  0  0  0  0  0  0  0  0  0
  -10.9982    3.8301   -2.2350 H   0  0  0  0  0  0  0  0  0  0  0  0
  -11.2311    2.0695   -2.0494 H   0  0  0  0  0  0  0  0  0  0  0  0
  -11.8984    4.6157    0.9110 H   0  0  0  0  0  0  0  0  0  0  0  0
   -4.9920    1.1191   -0.6584 H   0  0  0  0  0  0  0  0  0  0  0  0
    0.0429   -2.2950   -3.7823 H   0  0  0  0  0  0  0  0  0  0  0  0
    2.6016   -2.5669   -3.8789 H   0  0  0  0  0  0  0  0  0  0  0  0
    4.6273   -2.1706   -2.1915 H   0  0  0  0  0  0  0  0  0  0  0  0
    1.0741   -1.1058   -0.2203 H   0  0  0  0  0  0  0  0  0  0  0  0
   -2.5097   -2.9286   -3.3105 H   0  0  0  0  0  0  0  0  0  0  0  0
   -2.4390   -1.2586   -3.8774 H   0  0  0  0  0  0  0  0  0  0  0  0
   -4.1249   -0.6622   -2.3248 H   0  0  0  0  0  0  0  0  0  0  0  0
   -4.1976   -2.3257   -1.7520 H   0  0  0  0  0  0  0  0  0  0  0  0
    2.8944    0.5026    4.5953 H   0  0  0  0  0  0  0  0  0  0  0  0
    4.8140   -0.2277    2.8543 H   0  0  0  0  0  0  0  0  0  0  0  0
    5.5374    0.0723   -1.2045 H   0  0  0  0  0  0  0  0  0  0  0  0
  1  2  2  0  0  0  0
  2  3  1  0  0  0  0
  2  4  1  0  0  0  0
  4  5  1  0  0  0  0
  5  6  1  0  0  0  0
  6  7  1  0  0  0  0
  7  8  1  0  0  0  0
  8  9  2  0  0  0  0
  9 10  1  0  0  0  0
 10 11  2  0  0  0  0
 11 12  1  0  0  0  0
 12 13  1  0  0  0  0
 13 14  1  0  0  0  0
 14 15  2  0  0  0  0
 15 16  1  0  0  0  0
 16 17  2  0  0  0  0
 17 18  1  0  0  0  0
 18 19  2  0  0  0  0
 19 20  1  0  0  0  0
 20 21  2  0  0  0  0
 21 22  1  0  0  0  0
 21 23  1  0  0  0  0
 23 24  1  0  0  0  0
 24 25  2  0  0  0  0
 25 26  1  0  0  0  0
 26 27  2  0  0  0  0
 27 28  1  0  0  0  0
 28 29  1  0  0  0  0
 29 30  1  0  0  0  0
 30 31  1  0  0  0  0
 31 32  1  0  0  0  0
 32 33  1  0  0  0  0
 33 34  2  0  0  0  0
 33 35  1  0  0  0  0
 28 36  2  0  0  0  0
 23 37  2  0  0  0  0
 37 38  1  0  0  0  0
 38 39  2  0  0  0  0
 39 40  1  0  0  0  0
 40 41  2  0  0  0  0
 41 42  1  0  0  0  0
 42 43  2  0  0  0  0
 43 44  1  0  0  0  0
 44 45  1  0  0  0  0
 39 46  1  0  0  0  0
 46 47  1  0  0  0  0
 16 48  1  0  0  0  0
 48 49  2  0  0  0  0
 12 50  2  0  0  0  0
 50  8  1  0  0  0  0
 44 13  2  0  0  0  0
 49 14  1  0  0  0  0
 22 18  1  0  0  0  0
 36 24  1  0  0  0  0
 47 37  1  0  0  0  0
 45 41  1  0  0  0  0
  3 51  1  0  0  0  0
  4 52  1  0  0  0  0
  4 53  1  0  0  0  0
  5 54  1  0  0  0  0
  5 55  1  0  0  0  0
  6 56  1  0  0  0  0
  6 57  1  0  0  0  0
  9 58  1  0  0  0  0
 10 59  1  0  0  0  0
 11 60  1  0  0  0  0
 17 61  1  0  0  0  0
 19 62  1  0  0  0  0
 20 63  1  0  0  0  0
 22 64  1  0  0  0  0
 25 65  1  0  0  0  0
 26 66  1  0  0  0  0
 27 67  1  0  0  0  0
 30 68  1  0  0  0  0
 30 69  1  0  0  0  0
 31 70  1  0  0  0  0
 31 71  1  0  0  0  0
 32 72  1  0  0  0  0
 32 73  1  0  0  0  0
 35 74  1  0  0  0  0
 36 75  1  0  0  0  0
 40 76  1  0  0  0  0
 42 77  1  0  0  0  0
 43 78  1  0  0  0  0
 45 79  1  0  0  0  0
 46 80  1  0  0  0  0
 46 81  1  0  0  0  0
 47 82  1  0  0  0  0
 47 83  1  0  0  0  0
 48 84  1  0  0  0  0
 49 85  1  0  0  0  0
 50 86  1  0  0  0  0
M  END
