
  xtb     03212211053D
 energy: -45.528842344948 gnorm: 0.000338262675 xtb: 6.4.1 (afa7bdf)
 29 30  0     0  0            999 V2000
    5.2074    0.8932   -0.6138 O   0  0  0  0  0  0  0  0  0  0  0  0
    4.2635    0.1574   -0.7131 C   0  0  0  0  0  0  0  0  0  0  0  0
    4.3949   -1.1527   -0.9679 O   0  0  0  0  0  0  0  0  0  0  0  0
    2.8227    0.5466   -0.5408 C   0  0  0  0  0  0  0  0  0  0  0  0
    2.2883    0.0119    0.8102 C   0  0  0  0  0  0  0  0  0  0  0  0
    0.8960    0.2950    1.0136 N   0  0  0  0  0  0  0  0  0  0  0  0
   -0.1119   -0.3046    0.2830 C   0  0  0  0  0  0  0  0  0  0  0  0
    0.1066   -1.4540   -0.4515 C   0  0  0  0  0  0  0  0  0  0  0  0
   -0.9295   -2.0780   -1.1514 C   0  0  0  0  0  0  0  0  0  0  0  0
   -2.1939   -1.5627   -1.1374 C   0  0  0  0  0  0  0  0  0  0  0  0
   -2.4716   -0.3970   -0.3954 C   0  0  0  0  0  0  0  0  0  0  0  0
   -3.7746    0.1430   -0.3612 C   0  0  0  0  0  0  0  0  0  0  0  0
   -4.0582    1.2651    0.3630 C   0  0  0  0  0  0  0  0  0  0  0  0
   -3.0418    1.8944    1.0927 C   0  0  0  0  0  0  0  0  0  0  0  0
   -1.7675    1.3959    1.0780 C   0  0  0  0  0  0  0  0  0  0  0  0
   -1.4339    0.2446    0.3341 C   0  0  0  0  0  0  0  0  0  0  0  0
    5.3318   -1.3884   -1.0551 H   0  0  0  0  0  0  0  0  0  0  0  0
    2.2322    0.1083   -1.3464 H   0  0  0  0  0  0  0  0  0  0  0  0
    2.7407    1.6332   -0.5711 H   0  0  0  0  0  0  0  0  0  0  0  0
    2.8464    0.4777    1.6266 H   0  0  0  0  0  0  0  0  0  0  0  0
    2.4506   -1.0668    0.8612 H   0  0  0  0  0  0  0  0  0  0  0  0
    0.7129    1.2531    1.2673 H   0  0  0  0  0  0  0  0  0  0  0  0
    1.0885   -1.8966   -0.4980 H   0  0  0  0  0  0  0  0  0  0  0  0
   -0.7102   -2.9741   -1.7138 H   0  0  0  0  0  0  0  0  0  0  0  0
   -2.9941   -2.0369   -1.6856 H   0  0  0  0  0  0  0  0  0  0  0  0
   -4.5500   -0.3577   -0.9237 H   0  0  0  0  0  0  0  0  0  0  0  0
   -5.0593    1.6701    0.3824 H   0  0  0  0  0  0  0  0  0  0  0  0
   -3.2697    2.7775    1.6718 H   0  0  0  0  0  0  0  0  0  0  0  0
   -1.0167    1.9024    1.6680 H   0  0  0  0  0  0  0  0  0  0  0  0
  1  2  2  0  0  0  0
  2  3  1  0  0  0  0
  2  4  1  0  0  0  0
  4  5  1  0  0  0  0
  5  6  1  0  0  0  0
  6  7  1  0  0  0  0
  7  8  2  0  0  0  0
  8  9  1  0  0  0  0
  9 10  2  0  0  0  0
 10 11  1  0  0  0  0
 11 12  2  0  0  0  0
 12 13  1  0  0  0  0
 13 14  2  0  0  0  0
 14 15  1  0  0  0  0
 15 16  2  0  0  0  0
 16  7  1  0  0  0  0
 16 11  1  0  0  0  0
  3 17  1  0  0  0  0
  4 18  1  0  0  0  0
  4 19  1  0  0  0  0
  5 20  1  0  0  0  0
  5 21  1  0  0  0  0
  6 22  1  0  0  0  0
  8 23  1  0  0  0  0
  9 24  1  0  0  0  0
 10 25  1  0  0  0  0
 12 26  1  0  0  0  0
 13 27  1  0  0  0  0
 14 28  1  0  0  0  0
 15 29  1  0  0  0  0
M  END
