
  xtb     03212210283D
 energy: -87.035283392625 gnorm: 0.000197929003 xtb: 6.4.1 (afa7bdf)
 46 49  0     0  0            999 V2000
   -0.4083    5.9643   -0.1565 C   0  0  0  0  0  0  0  0  0  0  0  0
    0.6130    4.8750   -0.4253 C   0  0  0  0  0  0  0  0  0  0  0  0
   -0.0543    3.6122   -0.3899 O   0  0  0  0  0  0  0  0  0  0  0  0
    0.6966    2.5411   -0.7534 C   0  0  0  0  0  0  0  0  0  0  0  0
    1.8558    2.6347   -1.0900 O   0  0  0  0  0  0  0  0  0  0  0  0
   -0.0459    1.3085   -0.6935 C   0  0  0  0  0  0  0  0  0  0  0  0
   -1.3461    1.1095   -0.3174 C   0  0  0  0  0  0  0  0  0  0  0  0
   -2.2738    1.9785    0.0819 N   0  0  0  0  0  0  0  0  0  0  0  0
   -1.6500   -0.2533   -0.3983 N   0  0  0  0  0  0  0  0  0  0  0  0
   -2.8510   -0.8538   -0.1237 C   0  0  0  0  0  0  0  0  0  0  0  0
   -3.8152   -0.1977    0.2462 O   0  0  0  0  0  0  0  0  0  0  0  0
   -2.8490   -2.3076   -0.3107 C   0  0  0  0  0  0  0  0  0  0  0  0
   -4.0212   -3.0208   -0.0565 C   0  0  0  0  0  0  0  0  0  0  0  0
   -4.0513   -4.3898   -0.2222 C   0  0  0  0  0  0  0  0  0  0  0  0
   -2.9123   -5.0677   -0.6429 C   0  0  0  0  0  0  0  0  0  0  0  0
   -1.7464   -4.3739   -0.8973 C   0  0  0  0  0  0  0  0  0  0  0  0
   -1.7022   -2.9911   -0.7355 C   0  0  0  0  0  0  0  0  0  0  0  0
   -0.4431   -2.2799   -1.0160 C   0  0  0  0  0  0  0  0  0  0  0  0
    0.5930   -2.7968   -1.3838 O   0  0  0  0  0  0  0  0  0  0  0  0
   -0.5239   -0.9328   -0.8317 N   0  0  0  0  0  0  0  0  0  0  0  0
    0.5921   -0.0197   -1.0228 C   0  0  0  0  0  0  0  0  0  0  0  0
    1.7453   -0.3319   -0.0990 C   0  0  0  0  0  0  0  0  0  0  0  0
    3.0516   -0.2570   -0.5652 C   0  0  0  0  0  0  0  0  0  0  0  0
    4.1089   -0.4986    0.2886 C   0  0  0  0  0  0  0  0  0  0  0  0
    3.8508   -0.8234    1.6147 C   0  0  0  0  0  0  0  0  0  0  0  0
    4.9484   -1.0790    2.5117 N   0  0  0  0  0  4  0  0  0  0  0  0
    4.6832   -1.3361    3.6677 O   0  0  0  0  0  0  0  0  0  0  0  0
    6.0723   -1.0212    2.0609 O   0  0  0  0  0  1  0  0  0  0  0  0
    2.5486   -0.9020    2.0937 C   0  0  0  0  0  0  0  0  0  0  0  0
    1.5005   -0.6492    1.2335 C   0  0  0  0  0  0  0  0  0  0  0  0
   -1.1879    5.9457   -0.9139 H   0  0  0  0  0  0  0  0  0  0  0  0
    0.0817    6.9330   -0.1786 H   0  0  0  0  0  0  0  0  0  0  0  0
   -0.8639    5.8221    0.8202 H   0  0  0  0  0  0  0  0  0  0  0  0
    1.4055    4.8761    0.3314 H   0  0  0  0  0  0  0  0  0  0  0  0
    1.0822    4.9992   -1.4071 H   0  0  0  0  0  0  0  0  0  0  0  0
   -3.1982    1.6220    0.2942 H   0  0  0  0  0  0  0  0  0  0  0  0
   -2.0233    2.9517    0.1140 H   0  0  0  0  0  0  0  0  0  0  0  0
   -4.8915   -2.4719    0.2696 H   0  0  0  0  0  0  0  0  0  0  0  0
   -4.9611   -4.9357   -0.0244 H   0  0  0  0  0  0  0  0  0  0  0  0
   -2.9400   -6.1391   -0.7708 H   0  0  0  0  0  0  0  0  0  0  0  0
   -0.8479   -4.8744   -1.2246 H   0  0  0  0  0  0  0  0  0  0  0  0
    0.9432   -0.0731   -2.0615 H   0  0  0  0  0  0  0  0  0  0  0  0
    3.2370    0.0029   -1.5946 H   0  0  0  0  0  0  0  0  0  0  0  0
    5.1313   -0.4431   -0.0519 H   0  0  0  0  0  0  0  0  0  0  0  0
    2.3802   -1.1552    3.1292 H   0  0  0  0  0  0  0  0  0  0  0  0
    0.4861   -0.7009    1.6020 H   0  0  0  0  0  0  0  0  0  0  0  0
  1  2  1  0  0  0  0
  2  3  1  0  0  0  0
  3  4  1  0  0  0  0
  4  5  2  0  0  0  0
  4  6  1  0  0  0  0
  6  7  2  0  0  0  0
  7  8  1  0  0  0  0
  7  9  1  0  0  0  0
  9 10  1  0  0  0  0
 10 11  2  0  0  0  0
 10 12  1  0  0  0  0
 12 13  2  0  0  0  0
 13 14  1  0  0  0  0
 14 15  2  0  0  0  0
 15 16  1  0  0  0  0
 16 17  2  0  0  0  0
 17 18  1  0  0  0  0
 18 19  2  0  0  0  0
 18 20  1  0  0  0  0
 20 21  1  0  0  0  0
 21 22  1  0  0  0  0
 22 23  2  0  0  0  0
 23 24  1  0  0  0  0
 24 25  2  0  0  0  0
 25 26  1  0  0  0  0
 26 27  2  0  0  0  0
 26 28  1  0  0  0  0
 25 29  1  0  0  0  0
 29 30  2  0  0  0  0
 21  6  1  0  0  0  0
 30 22  1  0  0  0  0
 20  9  1  0  0  0  0
 17 12  1  0  0  0  0
  1 31  1  0  0  0  0
  1 32  1  0  0  0  0
  1 33  1  0  0  0  0
  2 34  1  0  0  0  0
  2 35  1  0  0  0  0
  8 36  1  0  0  0  0
  8 37  1  0  0  0  0
 13 38  1  0  0  0  0
 14 39  1  0  0  0  0
 15 40  1  0  0  0  0
 16 41  1  0  0  0  0
 21 42  1  0  0  0  0
 23 43  1  0  0  0  0
 24 44  1  0  0  0  0
 29 45  1  0  0  0  0
 30 46  1  0  0  0  0
M  CHG  1  26   1
M  CHG  1  28  -1
M  END
