
  xtb     03212211323D
 energy: -77.479410106993 gnorm: 0.000117172561 xtb: 6.4.1 (afa7bdf)
 43 47  0     0  0            999 V2000
    5.0716    3.4035   -0.9954 C   0  0  0  0  0  0  0  0  0  0  0  0
    3.7873    2.9148   -0.6920 O   0  0  0  0  0  0  0  0  0  0  0  0
    3.5822    1.5656   -0.7109 C   0  0  0  0  0  0  0  0  0  0  0  0
    4.5686    0.6132   -0.9985 C   0  0  0  0  0  0  0  0  0  0  0  0
    4.2687   -0.7298   -0.9964 C   0  0  0  0  0  0  0  0  0  0  0  0
    2.9773   -1.1846   -0.7048 C   0  0  0  0  0  0  0  0  0  0  0  0
    1.9836   -0.2276   -0.4132 C   0  0  0  0  0  0  0  0  0  0  0  0
    2.3001    1.1355   -0.4236 C   0  0  0  0  0  0  0  0  0  0  0  0
    0.6424   -0.6579   -0.1206 C   0  0  0  0  0  0  0  0  0  0  0  0
   -0.2698    0.3040    0.0650 N   0  0  0  0  0  0  0  0  0  0  0  0
   -1.5114   -0.0028    0.3381 C   0  0  0  0  0  0  0  0  0  0  0  0
   -2.4494    1.1209    0.4219 C   0  0  0  0  0  0  0  0  0  0  0  0
   -2.0597    2.2793    1.0920 C   0  0  0  0  0  0  0  0  0  0  0  0
   -2.9213    3.3557    1.1790 C   0  0  0  0  0  0  0  0  0  0  0  0
   -4.1698    3.2971    0.5802 C   0  0  0  0  0  0  0  0  0  0  0  0
   -4.5502    2.1611   -0.1156 C   0  0  0  0  0  0  0  0  0  0  0  0
   -3.6984    1.0747   -0.1950 C   0  0  0  0  0  0  0  0  0  0  0  0
   -1.9055   -1.3601    0.5369 C   0  0  0  0  0  0  0  0  0  0  0  0
   -3.1751   -1.7512    0.9968 C   0  0  0  0  0  0  0  0  0  0  0  0
   -3.4853   -3.0795    1.1202 C   0  0  0  0  0  0  0  0  0  0  0  0
   -2.5353   -4.0530    0.7911 C   0  0  0  0  0  0  0  0  0  0  0  0
   -1.2738   -3.7036    0.3823 C   0  0  0  0  0  0  0  0  0  0  0  0
   -0.9209   -2.3485    0.2689 C   0  0  0  0  0  0  0  0  0  0  0  0
    0.3436   -1.9613   -0.0794 N   0  0  0  0  0  4  0  0  0  0  0  0
    1.4724   -3.0753   -0.3843 B   0  0  0  0  0  4  0  0  0  0  0  0
    1.0055   -3.8443   -1.4254 F   0  0  0  0  0  0  0  0  0  0  0  0
    1.5921   -3.8358    0.7597 F   0  0  0  0  0  0  0  0  0  0  0  0
    2.7352   -2.4796   -0.7265 O   0  0  0  0  0  0  0  0  0  0  0  0
    5.3791    3.1289   -2.0096 H   0  0  0  0  0  0  0  0  0  0  0  0
    5.8193    3.0486   -0.2787 H   0  0  0  0  0  0  0  0  0  0  0  0
    4.9957    4.4876   -0.9258 H   0  0  0  0  0  0  0  0  0  0  0  0
    5.5776    0.9176   -1.2280 H   0  0  0  0  0  0  0  0  0  0  0  0
    5.0258   -1.4640   -1.2203 H   0  0  0  0  0  0  0  0  0  0  0  0
    1.5289    1.8558   -0.2083 H   0  0  0  0  0  0  0  0  0  0  0  0
   -1.0833    2.3124    1.5496 H   0  0  0  0  0  0  0  0  0  0  0  0
   -2.6180    4.2452    1.7106 H   0  0  0  0  0  0  0  0  0  0  0  0
   -4.8418    4.1396    0.6462 H   0  0  0  0  0  0  0  0  0  0  0  0
   -5.5139    2.1219   -0.6014 H   0  0  0  0  0  0  0  0  0  0  0  0
   -3.9845    0.2045   -0.7674 H   0  0  0  0  0  0  0  0  0  0  0  0
   -3.8910   -0.9904    1.2671 H   0  0  0  0  0  0  0  0  0  0  0  0
   -4.4602   -3.3790    1.4740 H   0  0  0  0  0  0  0  0  0  0  0  0
   -2.7936   -5.0972    0.8791 H   0  0  0  0  0  0  0  0  0  0  0  0
   -0.5450   -4.4625    0.1621 H   0  0  0  0  0  0  0  0  0  0  0  0
  1  2  1  0  0  0  0
  2  3  1  0  0  0  0
  3  4  2  0  0  0  0
  4  5  1  0  0  0  0
  5  6  2  0  0  0  0
  6  7  1  0  0  0  0
  7  8  2  0  0  0  0
  7  9  1  0  0  0  0
  9 10  2  0  0  0  0
 10 11  1  0  0  0  0
 11 12  1  0  0  0  0
 12 13  2  0  0  0  0
 13 14  1  0  0  0  0
 14 15  2  0  0  0  0
 15 16  1  0  0  0  0
 16 17  2  0  0  0  0
 11 18  2  0  0  0  0
 18 19  1  0  0  0  0
 19 20  2  0  0  0  0
 20 21  1  0  0  0  0
 21 22  2  0  0  0  0
 22 23  1  0  0  0  0
 23 24  2  0  0  0  0
 24 25  1  0  0  0  0
 25 26  1  0  0  0  0
 25 27  1  0  0  0  0
 25 28  1  0  0  0  0
  8  3  1  0  0  0  0
 24  9  1  0  0  0  0
 28  6  1  0  0  0  0
 17 12  1  0  0  0  0
 23 18  1  0  0  0  0
  1 29  1  0  0  0  0
  1 30  1  0  0  0  0
  1 31  1  0  0  0  0
  4 32  1  0  0  0  0
  5 33  1  0  0  0  0
  8 34  1  0  0  0  0
 13 35  1  0  0  0  0
 14 36  1  0  0  0  0
 15 37  1  0  0  0  0
 16 38  1  0  0  0  0
 17 39  1  0  0  0  0
 19 40  1  0  0  0  0
 20 41  1  0  0  0  0
 21 42  1  0  0  0  0
 22 43  1  0  0  0  0
M  CHG  1  24   1
M  CHG  1  25  -1
M  END
