
  xtb     03212211003D
 energy: -128.521995881845 gnorm: 0.000525364078 xtb: 6.4.1 (afa7bdf)
 76 82  0     0  0            999 V2000
   -9.0183    1.7397    1.3701 O   0  0  0  0  0  0  0  0  0  0  0  0
   -9.7007    1.5235    0.4114 C   0  0  0  0  0  0  0  0  0  0  0  0
  -11.0251    1.3346    0.4756 O   0  0  0  0  0  0  0  0  0  0  0  0
   -9.2154    1.4429   -1.0296 C   0  0  0  0  0  0  0  0  0  0  0  0
   -7.8220    1.4410   -1.1374 O   0  0  0  0  0  0  0  0  0  0  0  0
   -7.1232    0.3828   -0.6175 C   0  0  0  0  0  0  0  0  0  0  0  0
   -7.6911   -0.7751   -0.1026 C   0  0  0  0  0  0  0  0  0  0  0  0
   -6.8692   -1.7861    0.3690 C   0  0  0  0  0  0  0  0  0  0  0  0
   -5.4950   -1.6573    0.3377 C   0  0  0  0  0  0  0  0  0  0  0  0
   -4.9193   -0.4970   -0.1716 C   0  0  0  0  0  0  0  0  0  0  0  0
   -3.4433   -0.3426   -0.1982 C   0  0  0  0  0  0  0  0  0  0  0  0
   -2.8612    0.5031    0.7323 C   0  0  0  0  0  0  0  0  0  0  0  0
   -1.5534    0.7407    0.8567 N   0  0  0  0  0  0  0  0  0  0  0  0
   -1.3459    1.5741    1.8784 C   0  0  0  0  0  0  0  0  0  0  0  0
   -0.1334    2.0643    2.3126 C   0  0  0  0  0  0  0  0  0  0  0  0
    1.1424    1.8178    1.8106 C   0  0  0  0  0  0  0  0  0  0  0  0
    2.3491    2.3807    2.3001 C   0  0  0  0  0  0  0  0  0  0  0  0
    3.3791    1.8962    1.5418 C   0  0  0  0  0  0  0  0  0  0  0  0
    2.8253    1.0206    0.5737 C   0  0  0  0  0  0  0  0  0  0  0  0
    1.4773    1.0055    0.7708 N   0  0  0  0  0  0  0  0  0  0  0  0
    3.5155    0.3059   -0.4128 C   0  0  0  0  0  0  0  0  0  0  0  0
    4.9900    0.4728   -0.4484 C   0  0  0  0  0  0  0  0  0  0  0  0
    5.5926    1.2340   -1.4468 C   0  0  0  0  0  0  0  0  0  0  0  0
    6.9643    1.3838   -1.4646 C   0  0  0  0  0  0  0  0  0  0  0  0
    7.7605    0.7862   -0.4993 C   0  0  0  0  0  0  0  0  0  0  0  0
    7.1655    0.0323    0.5041 C   0  0  0  0  0  0  0  0  0  0  0  0
    7.8358   -0.6010    1.5135 O   0  0  0  0  0  0  0  0  0  0  0  0
    9.2269   -0.4590    1.5858 C   0  0  0  0  0  0  0  0  0  0  0  0
    9.7579   -1.1426    2.8356 C   0  0  0  0  0  0  0  0  0  0  0  0
   10.9154   -1.4231    2.9907 O   0  0  0  0  0  0  0  0  0  0  0  0
    8.8183   -1.3684    3.7425 O   0  0  0  0  0  0  0  0  0  0  0  0
    5.7800   -0.1190    0.5219 C   0  0  0  0  0  0  0  0  0  0  0  0
    2.9331   -0.5464   -1.3362 C   0  0  0  0  0  0  0  0  0  0  0  0
    1.6287   -0.8111   -1.4391 N   0  0  0  0  0  0  0  0  0  0  0  0
    1.4279   -1.7035   -2.4106 C   0  0  0  0  0  0  0  0  0  0  0  0
    0.2185   -2.2152   -2.8282 C   0  0  0  0  0  0  0  0  0  0  0  0
   -1.0607   -1.9396   -2.3507 C   0  0  0  0  0  0  0  0  0  0  0  0
   -2.2691   -2.4922   -2.8481 C   0  0  0  0  0  0  0  0  0  0  0  0
   -3.3027   -1.9722   -2.1187 C   0  0  0  0  0  0  0  0  0  0  0  0
   -2.7487   -1.0927   -1.1542 C   0  0  0  0  0  0  0  0  0  0  0  0
   -1.3978   -1.1019   -1.3320 N   0  0  0  0  0  0  0  0  0  0  0  0
    2.7215   -2.1474   -3.0750 C   0  0  0  0  0  0  0  0  0  0  0  0
    3.7720   -1.3211   -2.3395 C   0  0  0  0  0  0  0  0  0  0  0  0
   -2.6338    1.9743    2.5789 C   0  0  0  0  0  0  0  0  0  0  0  0
   -3.6956    1.2411    1.7648 C   0  0  0  0  0  0  0  0  0  0  0  0
   -5.7373    0.5114   -0.6519 C   0  0  0  0  0  0  0  0  0  0  0  0
  -11.3357    1.4144    1.3922 H   0  0  0  0  0  0  0  0  0  0  0  0
   -9.6788    0.5753   -1.5189 H   0  0  0  0  0  0  0  0  0  0  0  0
   -9.5523    2.3472   -1.5471 H   0  0  0  0  0  0  0  0  0  0  0  0
   -8.7614   -0.9049   -0.0554 H   0  0  0  0  0  0  0  0  0  0  0  0
   -7.3168   -2.6849    0.7674 H   0  0  0  0  0  0  0  0  0  0  0  0
   -4.8611   -2.4477    0.7103 H   0  0  0  0  0  0  0  0  0  0  0  0
   -0.1701    2.7385    3.1578 H   0  0  0  0  0  0  0  0  0  0  0  0
    2.4136    3.0673    3.1218 H   0  0  0  0  0  0  0  0  0  0  0  0
    4.4229    2.1213    1.6393 H   0  0  0  0  0  0  0  0  0  0  0  0
    0.8359    0.4632    0.2105 H   0  0  0  0  0  0  0  0  0  0  0  0
    4.9802    1.7149   -2.1947 H   0  0  0  0  0  0  0  0  0  0  0  0
    7.4316    1.9759   -2.2378 H   0  0  0  0  0  0  0  0  0  0  0  0
    8.8300    0.9186   -0.5442 H   0  0  0  0  0  0  0  0  0  0  0  0
    9.7340   -0.9019    0.7166 H   0  0  0  0  0  0  0  0  0  0  0  0
    9.5223    0.6002    1.6525 H   0  0  0  0  0  0  0  0  0  0  0  0
    9.1943   -1.8024    4.5255 H   0  0  0  0  0  0  0  0  0  0  0  0
    5.3368   -0.7070    1.3101 H   0  0  0  0  0  0  0  0  0  0  0  0
    0.2603   -2.9269   -3.6418 H   0  0  0  0  0  0  0  0  0  0  0  0
   -2.3326   -3.1919   -3.6588 H   0  0  0  0  0  0  0  0  0  0  0  0
   -4.3497   -2.1730   -2.2349 H   0  0  0  0  0  0  0  0  0  0  0  0
   -0.7573   -0.5537   -0.7767 H   0  0  0  0  0  0  0  0  0  0  0  0
    2.6933   -1.9397   -4.1455 H   0  0  0  0  0  0  0  0  0  0  0  0
    2.8644   -3.2212   -2.9438 H   0  0  0  0  0  0  0  0  0  0  0  0
    4.5131   -1.9324   -1.8223 H   0  0  0  0  0  0  0  0  0  0  0  0
    4.3075   -0.6407   -3.0019 H   0  0  0  0  0  0  0  0  0  0  0  0
   -2.6108    1.6571    3.6228 H   0  0  0  0  0  0  0  0  0  0  0  0
   -2.7600    3.0575    2.5594 H   0  0  0  0  0  0  0  0  0  0  0  0
   -4.3965    1.9213    1.2814 H   0  0  0  0  0  0  0  0  0  0  0  0
   -4.2785    0.5350    2.3579 H   0  0  0  0  0  0  0  0  0  0  0  0
   -5.3149    1.4127   -1.0679 H   0  0  0  0  0  0  0  0  0  0  0  0
  1  2  2  0  0  0  0
  2  3  1  0  0  0  0
  2  4  1  0  0  0  0
  4  5  1  0  0  0  0
  5  6  1  0  0  0  0
  6  7  2  0  0  0  0
  7  8  1  0  0  0  0
  8  9  2  0  0  0  0
  9 10  1  0  0  0  0
 10 11  1  0  0  0  0
 11 12  1  0  0  0  0
 12 13  2  0  0  0  0
 13 14  1  0  0  0  0
 14 15  2  0  0  0  0
 15 16  1  0  0  0  0
 16 17  2  0  0  0  0
 17 18  1  0  0  0  0
 18 19  2  0  0  0  0
 19 20  1  0  0  0  0
 19 21  1  0  0  0  0
 21 22  1  0  0  0  0
 22 23  2  0  0  0  0
 23 24  1  0  0  0  0
 24 25  2  0  0  0  0
 25 26  1  0  0  0  0
 26 27  1  0  0  0  0
 27 28  1  0  0  0  0
 28 29  1  0  0  0  0
 29 30  2  0  0  0  0
 29 31  1  0  0  0  0
 26 32  2  0  0  0  0
 21 33  2  0  0  0  0
 33 34  1  0  0  0  0
 34 35  2  0  0  0  0
 35 36  1  0  0  0  0
 36 37  2  0  0  0  0
 37 38  1  0  0  0  0
 38 39  2  0  0  0  0
 39 40  1  0  0  0  0
 40 41  1  0  0  0  0
 35 42  1  0  0  0  0
 42 43  1  0  0  0  0
 14 44  1  0  0  0  0
 44 45  1  0  0  0  0
 10 46  2  0  0  0  0
 46  6  1  0  0  0  0
 40 11  2  0  0  0  0
 45 12  1  0  0  0  0
 20 16  1  0  0  0  0
 32 22  1  0  0  0  0
 43 33  1  0  0  0  0
 41 37  1  0  0  0  0
  3 47  1  0  0  0  0
  4 48  1  0  0  0  0
  4 49  1  0  0  0  0
  7 50  1  0  0  0  0
  8 51  1  0  0  0  0
  9 52  1  0  0  0  0
 15 53  1  0  0  0  0
 17 54  1  0  0  0  0
 18 55  1  0  0  0  0
 20 56  1  0  0  0  0
 23 57  1  0  0  0  0
 24 58  1  0  0  0  0
 25 59  1  0  0  0  0
 28 60  1  0  0  0  0
 28 61  1  0  0  0  0
 31 62  1  0  0  0  0
 32 63  1  0  0  0  0
 36 64  1  0  0  0  0
 38 65  1  0  0  0  0
 39 66  1  0  0  0  0
 41 67  1  0  0  0  0
 42 68  1  0  0  0  0
 42 69  1  0  0  0  0
 43 70  1  0  0  0  0
 43 71  1  0  0  0  0
 44 72  1  0  0  0  0
 44 73  1  0  0  0  0
 45 74  1  0  0  0  0
 45 75  1  0  0  0  0
 46 76  1  0  0  0  0
M  END
