
  xtb     03212212253D
 energy: -59.343074681677 gnorm: 0.000355053610 xtb: 6.4.1 (afa7bdf)
 30 32  0     0  0            999 V2000
   -3.3259   -2.7152   -0.2386 O   0  0  0  0  0  0  0  0  0  0  0  0
   -2.4897   -1.8435   -0.0617 C   0  0  0  0  0  0  0  0  0  0  0  0
   -1.0709   -2.1301   -0.0052 C   0  0  0  0  0  0  0  0  0  0  0  0
   -0.1085   -1.1893    0.1734 C   0  0  0  0  0  0  0  0  0  0  0  0
    1.2107   -1.5375    0.1941 N   0  0  0  0  0  0  0  0  0  0  0  0
    2.3175   -0.7200    0.0226 C   0  0  0  0  0  0  0  0  0  0  0  0
    2.3109    0.4297   -0.7664 C   0  0  0  0  0  0  0  0  0  0  0  0
    3.4532    1.1905   -0.9180 C   0  0  0  0  0  0  0  0  0  0  0  0
    4.6237    0.7907   -0.2972 C   0  0  0  0  0  0  0  0  0  0  0  0
    5.7374    1.5293   -0.4492 F   0  0  0  0  0  0  0  0  0  0  0  0
    4.6878   -0.3649    0.4617 C   0  0  0  0  0  0  0  0  0  0  0  0
    3.5307   -1.0992    0.6050 C   0  0  0  0  0  0  0  0  0  0  0  0
    3.5611   -2.2424    1.3259 F   0  0  0  0  0  0  0  0  0  0  0  0
   -0.4877    0.2043    0.5584 C   0  0  0  0  0  0  0  0  0  0  0  0
    0.3009    0.9571    1.0939 O   0  0  0  0  0  0  0  0  0  0  0  0
   -1.9001    0.5618    0.3387 C   0  0  0  0  0  0  0  0  0  0  0  0
   -2.2814    1.8968    0.4517 C   0  0  0  0  0  0  0  0  0  0  0  0
   -3.6034    2.2637    0.2753 C   0  0  0  0  0  0  0  0  0  0  0  0
   -4.5590    1.2986   -0.0044 C   0  0  0  0  0  0  0  0  0  0  0  0
   -4.1910   -0.0322   -0.1086 C   0  0  0  0  0  0  0  0  0  0  0  0
   -2.8646   -0.4113    0.0556 C   0  0  0  0  0  0  0  0  0  0  0  0
   -0.7951   -3.1663   -0.1511 H   0  0  0  0  0  0  0  0  0  0  0  0
    1.4146   -2.5160    0.3580 H   0  0  0  0  0  0  0  0  0  0  0  0
    1.4028    0.7255   -1.2657 H   0  0  0  0  0  0  0  0  0  0  0  0
    3.4467    2.0850   -1.5190 H   0  0  0  0  0  0  0  0  0  0  0  0
    5.6051   -0.6800    0.9307 H   0  0  0  0  0  0  0  0  0  0  0  0
   -1.5233    2.6318    0.6787 H   0  0  0  0  0  0  0  0  0  0  0  0
   -3.8901    3.3010    0.3613 H   0  0  0  0  0  0  0  0  0  0  0  0
   -5.5920    1.5835   -0.1369 H   0  0  0  0  0  0  0  0  0  0  0  0
   -4.9199   -0.8014   -0.3166 H   0  0  0  0  0  0  0  0  0  0  0  0
  1  2  2  0  0  0  0
  2  3  1  0  0  0  0
  3  4  2  0  0  0  0
  4  5  1  0  0  0  0
  5  6  1  0  0  0  0
  6  7  2  0  0  0  0
  7  8  1  0  0  0  0
  8  9  2  0  0  0  0
  9 10  1  0  0  0  0
  9 11  1  0  0  0  0
 11 12  2  0  0  0  0
 12 13  1  0  0  0  0
  4 14  1  0  0  0  0
 14 15  2  0  0  0  0
 14 16  1  0  0  0  0
 16 17  2  0  0  0  0
 17 18  1  0  0  0  0
 18 19  2  0  0  0  0
 19 20  1  0  0  0  0
 20 21  2  0  0  0  0
 21  2  1  0  0  0  0
 12  6  1  0  0  0  0
 21 16  1  0  0  0  0
  3 22  1  0  0  0  0
  5 23  1  0  0  0  0
  7 24  1  0  0  0  0
  8 25  1  0  0  0  0
 11 26  1  0  0  0  0
 17 27  1  0  0  0  0
 18 28  1  0  0  0  0
 19 29  1  0  0  0  0
 20 30  1  0  0  0  0
M  END
