
  xtb     03212212193D
 energy: -88.717232654768 gnorm: 0.000079481954 xtb: 6.4.1 (afa7bdf)
 53 58  0     0  0            999 V2000
   -6.1519    1.9000   -0.9740 C   0  0  0  0  0  0  0  0  0  0  0  0
   -5.1205    0.8076   -1.2275 C   0  0  0  0  0  0  0  0  0  0  0  0
   -4.7707    0.0850    0.0818 C   0  0  0  0  0  0  0  0  0  0  0  0
   -3.7772   -0.9652   -0.0382 N   0  0  0  0  0  0  0  0  0  0  0  0
   -4.2103   -2.2597   -0.3485 C   0  0  0  0  0  0  0  0  0  0  0  0
   -5.4795   -2.4864   -0.8859 C   0  0  0  0  0  0  0  0  0  0  0  0
   -5.9250   -3.7605   -1.1926 C   0  0  0  0  0  0  0  0  0  0  0  0
   -5.1112   -4.8583   -0.9898 C   0  0  0  0  0  0  0  0  0  0  0  0
   -3.8488   -4.6606   -0.4627 C   0  0  0  0  0  0  0  0  0  0  0  0
   -3.4110   -3.3876   -0.1357 C   0  0  0  0  0  0  0  0  0  0  0  0
   -1.8216   -3.2796    0.6280 S   0  0  0  0  0  0  0  0  0  0  0  0
   -1.4356   -1.5865    0.2982 C   0  0  0  0  0  0  0  0  0  0  0  0
   -0.1032   -1.2421    0.3700 C   0  0  0  0  0  0  0  0  0  0  0  0
    0.3027    0.0887    0.2265 C   0  0  0  0  0  0  0  0  0  0  0  0
    1.6556    0.4393    0.3085 C   0  0  0  0  0  0  0  0  0  0  0  0
    2.8270    0.7460    0.3762 C   0  0  0  0  0  0  0  0  0  0  0  0
    4.1742    1.1013    0.4532 C   0  0  0  0  0  0  0  0  0  0  0  0
    4.5837    2.3928    0.0839 C   0  0  0  0  0  0  0  0  0  0  0  0
    3.8341    3.4877   -0.3921 C   0  0  0  0  0  0  0  0  0  0  0  0
    4.7280    4.5167   -0.6096 C   0  0  0  0  0  0  0  0  0  0  0  0
    5.9928    4.0333   -0.2655 C   0  0  0  0  0  0  0  0  0  0  0  0
    5.9031    2.7701    0.1466 N   0  0  0  0  0  4  0  0  0  0  0  0
    7.0691    1.8659    0.6124 B   0  0  0  0  0  4  0  0  0  0  0  0
    7.6850    2.4223    1.7136 F   0  0  0  0  0  0  0  0  0  0  0  0
    7.9812    1.7114   -0.4103 F   0  0  0  0  0  0  0  0  0  0  0  0
    6.4576    0.4947    0.9862 N   0  0  0  0  0  0  0  0  0  0  0  0
    7.1138   -0.5697    1.4436 C   0  0  0  0  0  0  0  0  0  0  0  0
    6.2230   -1.6224    1.6699 C   0  0  0  0  0  0  0  0  0  0  0  0
    4.9668   -1.1634    1.3295 C   0  0  0  0  0  0  0  0  0  0  0  0
    5.1249    0.1705    0.9002 C   0  0  0  0  0  0  0  0  0  0  0  0
   -0.6816    1.0549    0.0112 C   0  0  0  0  0  0  0  0  0  0  0  0
   -2.0094    0.6992   -0.0736 C   0  0  0  0  0  0  0  0  0  0  0  0
   -2.4375   -0.6309    0.0544 C   0  0  0  0  0  0  0  0  0  0  0  0
   -6.4021    2.4077   -1.9018 H   0  0  0  0  0  0  0  0  0  0  0  0
   -5.7670    2.6375   -0.2730 H   0  0  0  0  0  0  0  0  0  0  0  0
   -7.0640    1.4782   -0.5574 H   0  0  0  0  0  0  0  0  0  0  0  0
   -5.5115    0.0969   -1.9565 H   0  0  0  0  0  0  0  0  0  0  0  0
   -4.2233    1.2453   -1.6669 H   0  0  0  0  0  0  0  0  0  0  0  0
   -4.4039    0.8124    0.8119 H   0  0  0  0  0  0  0  0  0  0  0  0
   -5.6756   -0.3591    0.5059 H   0  0  0  0  0  0  0  0  0  0  0  0
   -6.1499   -1.6663   -1.0735 H   0  0  0  0  0  0  0  0  0  0  0  0
   -6.9176   -3.8849   -1.5979 H   0  0  0  0  0  0  0  0  0  0  0  0
   -5.4505   -5.8528   -1.2314 H   0  0  0  0  0  0  0  0  0  0  0  0
   -3.1891   -5.4944   -0.2775 H   0  0  0  0  0  0  0  0  0  0  0  0
    0.6279   -2.0125    0.5612 H   0  0  0  0  0  0  0  0  0  0  0  0
    2.7729    3.4887   -0.5468 H   0  0  0  0  0  0  0  0  0  0  0  0
    4.5109    5.5018   -0.9726 H   0  0  0  0  0  0  0  0  0  0  0  0
    6.9420    4.5322   -0.2977 H   0  0  0  0  0  0  0  0  0  0  0  0
    8.1762   -0.5365    1.5890 H   0  0  0  0  0  0  0  0  0  0  0  0
    6.4827   -2.5948    2.0388 H   0  0  0  0  0  0  0  0  0  0  0  0
    4.0346   -1.6916    1.3736 H   0  0  0  0  0  0  0  0  0  0  0  0
   -0.3982    2.0915   -0.0895 H   0  0  0  0  0  0  0  0  0  0  0  0
   -2.7223    1.4865   -0.2443 H   0  0  0  0  0  0  0  0  0  0  0  0
  1  2  1  0  0  0  0
  2  3  1  0  0  0  0
  3  4  1  0  0  0  0
  4  5  1  0  0  0  0
  5  6  2  0  0  0  0
  6  7  1  0  0  0  0
  7  8  2  0  0  0  0
  8  9  1  0  0  0  0
  9 10  2  0  0  0  0
 10 11  1  0  0  0  0
 11 12  1  0  0  0  0
 12 13  2  0  0  0  0
 13 14  1  0  0  0  0
 14 15  1  0  0  0  0
 15 16  3  0  0  0  0
 16 17  1  0  0  0  0
 17 18  2  0  0  0  0
 18 19  1  0  0  0  0
 19 20  2  0  0  0  0
 20 21  1  0  0  0  0
 21 22  2  0  0  0  0
 22 23  1  0  0  0  0
 23 24  1  0  0  0  0
 23 25  1  0  0  0  0
 23 26  1  0  0  0  0
 26 27  1  0  0  0  0
 27 28  2  0  0  0  0
 28 29  1  0  0  0  0
 29 30  2  0  0  0  0
 14 31  2  0  0  0  0
 31 32  1  0  0  0  0
 32 33  2  0  0  0  0
 33  4  1  0  0  0  0
 10  5  1  0  0  0  0
 33 12  1  0  0  0  0
 30 17  1  0  0  0  0
 22 18  1  0  0  0  0
 30 26  1  0  0  0  0
  1 34  1  0  0  0  0
  1 35  1  0  0  0  0
  1 36  1  0  0  0  0
  2 37  1  0  0  0  0
  2 38  1  0  0  0  0
  3 39  1  0  0  0  0
  3 40  1  0  0  0  0
  6 41  1  0  0  0  0
  7 42  1  0  0  0  0
  8 43  1  0  0  0  0
  9 44  1  0  0  0  0
 13 45  1  0  0  0  0
 19 46  1  0  0  0  0
 20 47  1  0  0  0  0
 21 48  1  0  0  0  0
 27 49  1  0  0  0  0
 28 50  1  0  0  0  0
 29 51  1  0  0  0  0
 31 52  1  0  0  0  0
 32 53  1  0  0  0  0
M  CHG  1  22   1
M  CHG  1  23  -1
M  END
