
  xtb     03212211313D
 energy: -88.420070507470 gnorm: 0.000108980577 xtb: 6.4.1 (afa7bdf)
 54 59  0     0  0            999 V2000
   -5.6827   -1.2919    3.5971 C   0  0  0  0  0  0  0  0  0  0  0  0
   -5.8749   -1.5855    2.2566 C   0  0  0  0  0  0  0  0  0  0  0  0
   -4.9128   -1.2476    1.3235 C   0  0  0  0  0  0  0  0  0  0  0  0
   -3.7451   -0.6034    1.7268 C   0  0  0  0  0  0  0  0  0  0  0  0
   -2.7011   -0.2500    0.7746 C   0  0  0  0  0  0  0  0  0  0  0  0
   -1.3879   -0.3260    1.1319 N   0  0  0  0  0  0  0  0  0  0  0  0
   -0.7127   -0.0128    0.0627 C   0  0  0  0  0  0  0  0  0  0  0  0
    0.7126    0.0371   -0.0558 C   0  0  0  0  0  0  0  0  0  0  0  0
    1.3879    0.3477   -1.1258 N   0  0  0  0  0  0  0  0  0  0  0  0
    2.7013    0.2517   -0.7741 C   0  0  0  0  0  0  0  0  0  0  0  0
    3.7467    0.4744   -1.7636 C   0  0  0  0  0  0  0  0  0  0  0  0
    4.9302   -0.2608   -1.7527 C   0  0  0  0  0  0  0  0  0  0  0  0
    5.8934   -0.0368   -2.7182 C   0  0  0  0  0  0  0  0  0  0  0  0
    5.6869    0.9139   -3.7050 C   0  0  0  0  0  0  0  0  0  0  0  0
    4.5027    1.6319   -3.7333 C   0  0  0  0  0  0  0  0  0  0  0  0
    3.5342    1.4111   -2.7725 C   0  0  0  0  0  0  0  0  0  0  0  0
    2.7641   -0.1136    0.5618 C   0  0  0  0  0  0  0  0  0  0  0  0
    3.8446   -0.3083    1.5093 C   0  0  0  0  0  0  0  0  0  0  0  0
    5.0641    0.3550    1.3670 C   0  0  0  0  0  0  0  0  0  0  0  0
    6.0719    0.1543    2.2900 C   0  0  0  0  0  0  0  0  0  0  0  0
    5.8786   -0.6985    3.3656 C   0  0  0  0  0  0  0  0  0  0  0  0
    4.6627   -1.3432    3.5239 C   0  0  0  0  0  0  0  0  0  0  0  0
    3.6487   -1.1490    2.6061 C   0  0  0  0  0  0  0  0  0  0  0  0
    1.4876   -0.2565    1.0009 O   0  0  0  0  0  0  0  0  0  0  0  0
   -1.4877    0.2776   -0.9950 O   0  0  0  0  0  0  0  0  0  0  0  0
   -2.7642    0.1412   -0.5539 C   0  0  0  0  0  0  0  0  0  0  0  0
   -3.8462    0.4517   -1.4684 C   0  0  0  0  0  0  0  0  0  0  0  0
   -5.0783    0.9151   -1.0055 C   0  0  0  0  0  0  0  0  0  0  0  0
   -6.0873    1.2091   -1.9018 C   0  0  0  0  0  0  0  0  0  0  0  0
   -5.8828    1.0542   -3.2641 C   0  0  0  0  0  0  0  0  0  0  0  0
   -4.6546    0.6150   -3.7308 C   0  0  0  0  0  0  0  0  0  0  0  0
   -3.6394    0.3183   -2.8423 C   0  0  0  0  0  0  0  0  0  0  0  0
   -3.5466   -0.3332    3.0789 C   0  0  0  0  0  0  0  0  0  0  0  0
   -4.5138   -0.6713    4.0062 C   0  0  0  0  0  0  0  0  0  0  0  0
   -6.4395   -1.5545    4.3217 H   0  0  0  0  0  0  0  0  0  0  0  0
   -6.7779   -2.0848    1.9370 H   0  0  0  0  0  0  0  0  0  0  0  0
   -5.0568   -1.4938    0.2818 H   0  0  0  0  0  0  0  0  0  0  0  0
    5.0858   -1.0151   -0.9954 H   0  0  0  0  0  0  0  0  0  0  0  0
    6.8088   -0.6102   -2.7038 H   0  0  0  0  0  0  0  0  0  0  0  0
    6.4446    1.0878   -4.4549 H   0  0  0  0  0  0  0  0  0  0  0  0
    4.3337    2.3650   -4.5084 H   0  0  0  0  0  0  0  0  0  0  0  0
    2.6034    1.9565   -2.7867 H   0  0  0  0  0  0  0  0  0  0  0  0
    5.2099    1.0347    0.5415 H   0  0  0  0  0  0  0  0  0  0  0  0
    7.0132    0.6707    2.1730 H   0  0  0  0  0  0  0  0  0  0  0  0
    6.6716   -0.8542    4.0819 H   0  0  0  0  0  0  0  0  0  0  0  0
    4.5044   -2.0004    4.3662 H   0  0  0  0  0  0  0  0  0  0  0  0
    2.6984   -1.6473    2.7244 H   0  0  0  0  0  0  0  0  0  0  0  0
   -5.2333    1.0554    0.0533 H   0  0  0  0  0  0  0  0  0  0  0  0
   -7.0385    1.5668   -1.5361 H   0  0  0  0  0  0  0  0  0  0  0  0
   -6.6767    1.2823   -3.9596 H   0  0  0  0  0  0  0  0  0  0  0  0
   -4.4877    0.5029   -4.7920 H   0  0  0  0  0  0  0  0  0  0  0  0
   -2.6796   -0.0231   -3.1996 H   0  0  0  0  0  0  0  0  0  0  0  0
   -2.6274    0.1426    3.3836 H   0  0  0  0  0  0  0  0  0  0  0  0
   -4.3559   -0.4522    5.0521 H   0  0  0  0  0  0  0  0  0  0  0  0
  1  2  2  0  0  0  0
  2  3  1  0  0  0  0
  3  4  2  0  0  0  0
  4  5  1  0  0  0  0
  5  6  1  0  0  0  0
  6  7  2  0  0  0  0
  7  8  1  0  0  0  0
  8  9  2  0  0  0  0
  9 10  1  0  0  0  0
 10 11  1  0  0  0  0
 11 12  2  0  0  0  0
 12 13  1  0  0  0  0
 13 14  2  0  0  0  0
 14 15  1  0  0  0  0
 15 16  2  0  0  0  0
 10 17  2  0  0  0  0
 17 18  1  0  0  0  0
 18 19  2  0  0  0  0
 19 20  1  0  0  0  0
 20 21  2  0  0  0  0
 21 22  1  0  0  0  0
 22 23  2  0  0  0  0
 17 24  1  0  0  0  0
  7 25  1  0  0  0  0
 25 26  1  0  0  0  0
 26 27  1  0  0  0  0
 27 28  2  0  0  0  0
 28 29  1  0  0  0  0
 29 30  2  0  0  0  0
 30 31  1  0  0  0  0
 31 32  2  0  0  0  0
  4 33  1  0  0  0  0
 33 34  2  0  0  0  0
 34  1  1  0  0  0  0
 26  5  2  0  0  0  0
 32 27  1  0  0  0  0
 24  8  1  0  0  0  0
 16 11  1  0  0  0  0
 23 18  1  0  0  0  0
  1 35  1  0  0  0  0
  2 36  1  0  0  0  0
  3 37  1  0  0  0  0
 12 38  1  0  0  0  0
 13 39  1  0  0  0  0
 14 40  1  0  0  0  0
 15 41  1  0  0  0  0
 16 42  1  0  0  0  0
 19 43  1  0  0  0  0
 20 44  1  0  0  0  0
 21 45  1  0  0  0  0
 22 46  1  0  0  0  0
 23 47  1  0  0  0  0
 28 48  1  0  0  0  0
 29 49  1  0  0  0  0
 30 50  1  0  0  0  0
 31 51  1  0  0  0  0
 32 52  1  0  0  0  0
 33 53  1  0  0  0  0
 34 54  1  0  0  0  0
M  END
