
  xtb     03212212133D
 energy: -59.285922712805 gnorm: 0.000201720100 xtb: 6.4.1 (afa7bdf)
 33 36  0     0  0            999 V2000
    2.5112    2.9452   -0.4708 O   0  0  0  0  0  0  0  0  0  0  0  0
    1.5330    2.2474   -0.3632 C   0  0  0  0  0  0  0  0  0  0  0  0
    0.3185    2.8647   -0.4871 O   0  0  0  0  0  0  0  0  0  0  0  0
   -0.8424    2.1799   -0.3844 C   0  0  0  0  0  0  0  0  0  0  0  0
   -2.0510    2.8814   -0.5229 C   0  0  0  0  0  0  0  0  0  0  0  0
   -3.2313    2.2015   -0.4214 C   0  0  0  0  0  0  0  0  0  0  0  0
   -3.2638    0.8088   -0.1803 C   0  0  0  0  0  0  0  0  0  0  0  0
   -4.4773    0.0985   -0.0739 C   0  0  0  0  0  0  0  0  0  0  0  0
   -4.4895   -1.2467    0.1591 C   0  0  0  0  0  0  0  0  0  0  0  0
   -3.2787   -1.9531    0.2984 C   0  0  0  0  0  0  0  0  0  0  0  0
   -3.3586   -3.2852    0.5281 O   0  0  0  0  0  0  0  0  0  0  0  0
   -2.0777   -1.2873    0.1997 C   0  0  0  0  0  0  0  0  0  0  0  0
   -2.0499    0.0920   -0.0391 C   0  0  0  0  0  0  0  0  0  0  0  0
   -0.8182    0.8071   -0.1459 C   0  0  0  0  0  0  0  0  0  0  0  0
    0.3614    0.1514   -0.0155 N   0  0  0  0  0  0  0  0  0  0  0  0
    1.4910    0.7886   -0.1101 C   0  0  0  0  0  0  0  0  0  0  0  0
    2.7141    0.0010    0.0440 C   0  0  0  0  0  0  0  0  0  0  0  0
    3.9960    0.5508   -0.0290 C   0  0  0  0  0  0  0  0  0  0  0  0
    5.1094   -0.2546    0.1265 C   0  0  0  0  0  0  0  0  0  0  0  0
    4.9720   -1.6130    0.3562 C   0  0  0  0  0  0  0  0  0  0  0  0
    3.7039   -2.1706    0.4308 C   0  0  0  0  0  0  0  0  0  0  0  0
    2.5892   -1.3747    0.2768 C   0  0  0  0  0  0  0  0  0  0  0  0
   -2.0131    3.9431   -0.7065 H   0  0  0  0  0  0  0  0  0  0  0  0
   -4.1682    2.7283   -0.5258 H   0  0  0  0  0  0  0  0  0  0  0  0
   -5.4062    0.6387   -0.1805 H   0  0  0  0  0  0  0  0  0  0  0  0
   -5.4119   -1.7990    0.2421 H   0  0  0  0  0  0  0  0  0  0  0  0
   -2.4733   -3.6623    0.6058 H   0  0  0  0  0  0  0  0  0  0  0  0
   -1.1380   -1.8096    0.3033 H   0  0  0  0  0  0  0  0  0  0  0  0
    4.1205    1.6054   -0.2070 H   0  0  0  0  0  0  0  0  0  0  0  0
    6.0941    0.1850    0.0675 H   0  0  0  0  0  0  0  0  0  0  0  0
    5.8463   -2.2356    0.4767 H   0  0  0  0  0  0  0  0  0  0  0  0
    3.5896   -3.2299    0.6097 H   0  0  0  0  0  0  0  0  0  0  0  0
    1.5990   -1.7973    0.3327 H   0  0  0  0  0  0  0  0  0  0  0  0
  1  2  2  0  0  0  0
  2  3  1  0  0  0  0
  3  4  1  0  0  0  0
  4  5  2  0  0  0  0
  5  6  1  0  0  0  0
  6  7  2  0  0  0  0
  7  8  1  0  0  0  0
  8  9  2  0  0  0  0
  9 10  1  0  0  0  0
 10 11  1  0  0  0  0
 10 12  2  0  0  0  0
 12 13  1  0  0  0  0
 13 14  2  0  0  0  0
 14 15  1  0  0  0  0
 15 16  2  0  0  0  0
 16 17  1  0  0  0  0
 17 18  2  0  0  0  0
 18 19  1  0  0  0  0
 19 20  2  0  0  0  0
 20 21  1  0  0  0  0
 21 22  2  0  0  0  0
 16  2  1  0  0  0  0
 22 17  1  0  0  0  0
 14  4  1  0  0  0  0
 13  7  1  0  0  0  0
  5 23  1  0  0  0  0
  6 24  1  0  0  0  0
  8 25  1  0  0  0  0
  9 26  1  0  0  0  0
 11 27  1  0  0  0  0
 12 28  1  0  0  0  0
 18 29  1  0  0  0  0
 19 30  1  0  0  0  0
 20 31  1  0  0  0  0
 21 32  1  0  0  0  0
 22 33  1  0  0  0  0
M  END
