
  xtb     03212211313D
 energy: -133.093853699106 gnorm: 0.000086234659 xtb: 6.4.1 (afa7bdf)
 84 92  0     0  0            999 V2000
  -12.2425   -3.3744   -1.6066 C   0  0  0  0  0  0  0  0  0  0  0  0
  -12.4143   -2.4568   -0.5826 C   0  0  0  0  0  0  0  0  0  0  0  0
  -11.4085   -1.5612   -0.2724 C   0  0  0  0  0  0  0  0  0  0  0  0
  -10.2161   -1.5722   -0.9933 C   0  0  0  0  0  0  0  0  0  0  0  0
   -9.1263   -0.6604   -0.6753 C   0  0  0  0  0  0  0  0  0  0  0  0
   -7.8283   -1.0687   -0.7828 N   0  0  0  0  0  0  0  0  0  0  0  0
   -7.1009   -0.0730   -0.3637 C   0  0  0  0  0  0  0  0  0  0  0  0
   -5.6599   -0.0454   -0.2822 C   0  0  0  0  0  0  0  0  0  0  0  0
   -4.9885    1.0703    0.2179 C   0  0  0  0  0  0  0  0  0  0  0  0
   -3.6118    1.0740    0.2914 C   0  0  0  0  0  0  0  0  0  0  0  0
   -2.8690   -0.0302   -0.1273 C   0  0  0  0  0  0  0  0  0  0  0  0
   -1.4039   -0.0255   -0.0400 C   0  0  0  0  0  0  0  0  0  0  0  0
   -0.7085   -1.1707    0.3458 C   0  0  0  0  0  0  0  0  0  0  0  0
    0.6681   -1.1668    0.4344 C   0  0  0  0  0  0  0  0  0  0  0  0
    1.4017   -0.0210    0.1295 C   0  0  0  0  0  0  0  0  0  0  0  0
    2.8668   -0.0220    0.2160 C   0  0  0  0  0  0  0  0  0  0  0  0
    3.6373    0.6460   -0.7363 C   0  0  0  0  0  0  0  0  0  0  0  0
    5.0140    0.6404   -0.6635 C   0  0  0  0  0  0  0  0  0  0  0  0
    5.6576   -0.0361    0.3727 C   0  0  0  0  0  0  0  0  0  0  0  0
    7.0981   -0.0602    0.4647 C   0  0  0  0  0  0  0  0  0  0  0  0
    7.8014   -0.7047    1.3513 N   0  0  0  0  0  0  0  0  0  0  0  0
    9.1090   -0.4425    1.0603 C   0  0  0  0  0  0  0  0  0  0  0  0
   10.1729   -0.9653    1.9060 C   0  0  0  0  0  0  0  0  0  0  0  0
   11.3317   -0.2337    2.1574 C   0  0  0  0  0  0  0  0  0  0  0  0
   12.3133   -0.7517    2.9810 C   0  0  0  0  0  0  0  0  0  0  0  0
   12.1499   -1.9969    3.5666 C   0  0  0  0  0  0  0  0  0  0  0  0
   10.9907   -2.7195    3.3366 C   0  0  0  0  0  0  0  0  0  0  0  0
   10.0045   -2.2062    2.5159 C   0  0  0  0  0  0  0  0  0  0  0  0
    9.1466    0.3771   -0.0537 C   0  0  0  0  0  0  0  0  0  0  0  0
   10.2114    0.9320   -0.8664 C   0  0  0  0  0  0  0  0  0  0  0  0
   11.4437    0.2874   -0.9818 C   0  0  0  0  0  0  0  0  0  0  0  0
   12.4390    0.8318   -1.7694 C   0  0  0  0  0  0  0  0  0  0  0  0
   12.2214    2.0157   -2.4569 C   0  0  0  0  0  0  0  0  0  0  0  0
   10.9941    2.6508   -2.3619 C   0  0  0  0  0  0  0  0  0  0  0  0
    9.9931    2.1137   -1.5759 C   0  0  0  0  0  0  0  0  0  0  0  0
    7.8586    0.6214   -0.4158 O   0  0  0  0  0  0  0  0  0  0  0  0
    4.8946   -0.7035    1.3321 C   0  0  0  0  0  0  0  0  0  0  0  0
    3.5196   -0.6950    1.2506 C   0  0  0  0  0  0  0  0  0  0  0  0
    0.7065    1.1226   -0.2611 C   0  0  0  0  0  0  0  0  0  0  0  0
   -0.6710    1.1221   -0.3388 C   0  0  0  0  0  0  0  0  0  0  0  0
   -3.5495   -1.1418   -0.6284 C   0  0  0  0  0  0  0  0  0  0  0  0
   -4.9246   -1.1529   -0.7074 C   0  0  0  0  0  0  0  0  0  0  0  0
   -7.8355    0.9922    0.0156 O   0  0  0  0  0  0  0  0  0  0  0  0
   -9.1318    0.6355   -0.1904 C   0  0  0  0  0  0  0  0  0  0  0  0
  -10.1685    1.6182    0.0568 C   0  0  0  0  0  0  0  0  0  0  0  0
  -11.3658    1.6003   -0.6601 C   0  0  0  0  0  0  0  0  0  0  0  0
  -12.3331    2.5554   -0.4169 C   0  0  0  0  0  0  0  0  0  0  0  0
  -12.1215    3.5427    0.5329 C   0  0  0  0  0  0  0  0  0  0  0  0
  -10.9282    3.5772    1.2352 C   0  0  0  0  0  0  0  0  0  0  0  0
   -9.9554    2.6252    0.9991 C   0  0  0  0  0  0  0  0  0  0  0  0
  -10.0409   -2.5118   -2.0064 C   0  0  0  0  0  0  0  0  0  0  0  0
  -11.0515   -3.4031   -2.3132 C   0  0  0  0  0  0  0  0  0  0  0  0
  -13.0327   -4.0706   -1.8468 H   0  0  0  0  0  0  0  0  0  0  0  0
  -13.3359   -2.4426   -0.0189 H   0  0  0  0  0  0  0  0  0  0  0  0
  -11.5385   -0.8590    0.5381 H   0  0  0  0  0  0  0  0  0  0  0  0
   -5.5555    1.9274    0.5492 H   0  0  0  0  0  0  0  0  0  0  0  0
   -3.1019    1.9341    0.7001 H   0  0  0  0  0  0  0  0  0  0  0  0
   -1.2567   -2.0663    0.5988 H   0  0  0  0  0  0  0  0  0  0  0  0
    1.1864   -2.0694    0.7230 H   0  0  0  0  0  0  0  0  0  0  0  0
    3.1487    1.1541   -1.5547 H   0  0  0  0  0  0  0  0  0  0  0  0
    5.6026    1.1526   -1.4100 H   0  0  0  0  0  0  0  0  0  0  0  0
   11.4543    0.7447    1.7164 H   0  0  0  0  0  0  0  0  0  0  0  0
   13.2092   -0.1787    3.1713 H   0  0  0  0  0  0  0  0  0  0  0  0
   12.9215   -2.3986    4.2069 H   0  0  0  0  0  0  0  0  0  0  0  0
   10.8555   -3.6857    3.8005 H   0  0  0  0  0  0  0  0  0  0  0  0
    9.0933   -2.7548    2.3336 H   0  0  0  0  0  0  0  0  0  0  0  0
   11.6091   -0.6443   -0.4627 H   0  0  0  0  0  0  0  0  0  0  0  0
   13.3899    0.3265   -1.8527 H   0  0  0  0  0  0  0  0  0  0  0  0
   13.0041    2.4381   -3.0693 H   0  0  0  0  0  0  0  0  0  0  0  0
   10.8169    3.5693   -2.9022 H   0  0  0  0  0  0  0  0  0  0  0  0
    9.0359    2.6075   -1.4974 H   0  0  0  0  0  0  0  0  0  0  0  0
    5.4057   -1.2167    2.1311 H   0  0  0  0  0  0  0  0  0  0  0  0
    2.9364   -1.1971    2.0083 H   0  0  0  0  0  0  0  0  0  0  0  0
    1.2526    2.0273   -0.4856 H   0  0  0  0  0  0  0  0  0  0  0  0
   -1.1874    2.0164   -0.6560 H   0  0  0  0  0  0  0  0  0  0  0  0
   -2.9872   -1.9952   -0.9776 H   0  0  0  0  0  0  0  0  0  0  0  0
   -5.4569   -2.0067   -1.0953 H   0  0  0  0  0  0  0  0  0  0  0  0
  -11.5250    0.8444   -1.4139 H   0  0  0  0  0  0  0  0  0  0  0  0
  -13.2567    2.5339   -0.9764 H   0  0  0  0  0  0  0  0  0  0  0  0
  -12.8821    4.2861    0.7199 H   0  0  0  0  0  0  0  0  0  0  0  0
  -10.7554    4.3493    1.9706 H   0  0  0  0  0  0  0  0  0  0  0  0
   -9.0248    2.6479    1.5464 H   0  0  0  0  0  0  0  0  0  0  0  0
   -9.1050   -2.5280   -2.5432 H   0  0  0  0  0  0  0  0  0  0  0  0
  -10.9102   -4.1247   -3.1047 H   0  0  0  0  0  0  0  0  0  0  0  0
  1  2  2  0  0  0  0
  2  3  1  0  0  0  0
  3  4  2  0  0  0  0
  4  5  1  0  0  0  0
  5  6  1  0  0  0  0
  6  7  2  0  0  0  0
  7  8  1  0  0  0  0
  8  9  2  0  0  0  0
  9 10  1  0  0  0  0
 10 11  2  0  0  0  0
 11 12  1  0  0  0  0
 12 13  2  0  0  0  0
 13 14  1  0  0  0  0
 14 15  2  0  0  0  0
 15 16  1  0  0  0  0
 16 17  2  0  0  0  0
 17 18  1  0  0  0  0
 18 19  2  0  0  0  0
 19 20  1  0  0  0  0
 20 21  2  0  0  0  0
 21 22  1  0  0  0  0
 22 23  1  0  0  0  0
 23 24  2  0  0  0  0
 24 25  1  0  0  0  0
 25 26  2  0  0  0  0
 26 27  1  0  0  0  0
 27 28  2  0  0  0  0
 22 29  2  0  0  0  0
 29 30  1  0  0  0  0
 30 31  2  0  0  0  0
 31 32  1  0  0  0  0
 32 33  2  0  0  0  0
 33 34  1  0  0  0  0
 34 35  2  0  0  0  0
 29 36  1  0  0  0  0
 19 37  1  0  0  0  0
 37 38  2  0  0  0  0
 15 39  1  0  0  0  0
 39 40  2  0  0  0  0
 11 41  1  0  0  0  0
 41 42  2  0  0  0  0
  7 43  1  0  0  0  0
 43 44  1  0  0  0  0
 44 45  1  0  0  0  0
 45 46  2  0  0  0  0
 46 47  1  0  0  0  0
 47 48  2  0  0  0  0
 48 49  1  0  0  0  0
 49 50  2  0  0  0  0
  4 51  1  0  0  0  0
 51 52  2  0  0  0  0
 52  1  1  0  0  0  0
 44  5  2  0  0  0  0
 50 45  1  0  0  0  0
 42  8  1  0  0  0  0
 40 12  1  0  0  0  0
 38 16  1  0  0  0  0
 36 20  1  0  0  0  0
 28 23  1  0  0  0  0
 35 30  1  0  0  0  0
  1 53  1  0  0  0  0
  2 54  1  0  0  0  0
  3 55  1  0  0  0  0
  9 56  1  0  0  0  0
 10 57  1  0  0  0  0
 13 58  1  0  0  0  0
 14 59  1  0  0  0  0
 17 60  1  0  0  0  0
 18 61  1  0  0  0  0
 24 62  1  0  0  0  0
 25 63  1  0  0  0  0
 26 64  1  0  0  0  0
 27 65  1  0  0  0  0
 28 66  1  0  0  0  0
 31 67  1  0  0  0  0
 32 68  1  0  0  0  0
 33 69  1  0  0  0  0
 34 70  1  0  0  0  0
 35 71  1  0  0  0  0
 37 72  1  0  0  0  0
 38 73  1  0  0  0  0
 39 74  1  0  0  0  0
 40 75  1  0  0  0  0
 41 76  1  0  0  0  0
 42 77  1  0  0  0  0
 46 78  1  0  0  0  0
 47 79  1  0  0  0  0
 48 80  1  0  0  0  0
 49 81  1  0  0  0  0
 50 82  1  0  0  0  0
 51 83  1  0  0  0  0
 52 84  1  0  0  0  0
M  END
