
  xtb     03212210343D
 energy: -148.765413049902 gnorm: 0.000279108639 xtb: 6.4.1 (afa7bdf)
 81 85  0     0  0            999 V2000
   -5.7975   -0.3951    0.8942 C   0  0  0  0  0  0  0  0  0  0  0  0
   -6.7225    0.4552    0.2414 O   0  0  0  0  0  0  0  0  0  0  0  0
   -6.3961    1.7566    0.0758 C   0  0  0  0  0  0  0  0  0  0  0  0
   -5.2256    2.3503    0.5184 C   0  0  0  0  0  0  0  0  0  0  0  0
   -4.9576    3.6968    0.2535 C   0  0  0  0  0  0  0  0  0  0  0  0
   -3.7552    4.3814    0.6754 C   0  0  0  0  0  0  0  0  0  0  0  0
   -2.4877    3.9624    0.8918 C   0  0  0  0  0  0  0  0  0  0  0  0
   -1.8636    2.6773    0.6773 C   0  0  0  0  0  0  0  0  0  0  0  0
   -0.5011    2.5385    0.9670 C   0  0  0  0  0  0  0  0  0  0  0  0
    0.1440    1.3359    0.6765 C   0  0  0  0  0  0  0  0  0  0  0  0
    1.5677    1.2074    0.8838 C   0  0  0  0  0  0  0  0  0  0  0  0
    2.2275    0.0664    0.6001 C   0  0  0  0  0  0  0  0  0  0  0  0
    3.6358   -0.1979    0.7577 C   0  0  0  0  0  0  0  0  0  0  0  0
    4.1346   -1.4369    0.3457 C   0  0  0  0  0  0  0  0  0  0  0  0
    5.4815   -1.7288    0.4475 C   0  0  0  0  0  0  0  0  0  0  0  0
    6.3503   -0.7982    0.9914 C   0  0  0  0  0  0  0  0  0  0  0  0
    7.6862   -1.0545    1.0784 O   0  0  0  0  0  0  0  0  0  0  0  0
    8.7239    0.0731    0.4593 S   0  0  0  0  0  6  0  0  0  0  0  0
    9.5106    0.6560    1.4947 O   0  0  0  0  0  0  0  0  0  0  0  0
    7.9941    0.9130   -0.4405 O   0  0  0  0  0  0  0  0  0  0  0  0
    9.7166   -1.0829   -0.4584 C   0  0  0  0  0  0  0  0  0  0  0  0
    9.3094   -1.4522   -1.7239 C   0  0  0  0  0  0  0  0  0  0  0  0
   10.0566   -2.3801   -2.4285 C   0  0  0  0  0  0  0  0  0  0  0  0
   11.2025   -2.9388   -1.8701 C   0  0  0  0  0  0  0  0  0  0  0  0
   11.9998   -3.9580   -2.6225 C   0  0  0  0  0  0  0  0  0  0  0  0
   11.5888   -2.5498   -0.5900 C   0  0  0  0  0  0  0  0  0  0  0  0
   10.8471   -1.6227    0.1205 C   0  0  0  0  0  0  0  0  0  0  0  0
    5.8661    0.4444    1.4471 C   0  0  0  0  0  0  0  0  0  0  0  0
    6.8026    1.2385    2.0077 O   0  0  0  0  0  0  0  0  0  0  0  0
    6.5123    2.6031    2.2071 C   0  0  0  0  0  0  0  0  0  0  0  0
    4.5221    0.7380    1.3102 C   0  0  0  0  0  0  0  0  0  0  0  0
   -0.4922    0.3111    0.2007 O   0  0  0  0  0  3  0  0  0  0  0  0
   -1.9759    0.3155    0.0850 B   0  0  0  0  0  4  0  0  0  0  0  0
   -2.4983   -0.4097    1.1397 F   0  0  0  0  0  0  0  0  0  0  0  0
   -2.3473   -0.2351   -1.1034 F   0  0  0  0  0  0  0  0  0  0  0  0
   -2.5398    1.6975    0.1751 O   0  0  0  0  0  0  0  0  0  0  0  0
   -5.9211    4.4556   -0.4218 C   0  0  0  0  0  0  0  0  0  0  0  0
   -7.0964    3.8776   -0.8550 C   0  0  0  0  0  0  0  0  0  0  0  0
   -7.3415    2.5343   -0.6181 C   0  0  0  0  0  0  0  0  0  0  0  0
   -8.5074    1.9737   -1.0567 O   0  0  0  0  0  0  0  0  0  0  0  0
   -9.4808    1.2358    0.0333 S   0  0  0  0  0  6  0  0  0  0  0  0
   -9.1073    1.6550    1.3487 O   0  0  0  0  0  0  0  0  0  0  0  0
  -10.8053    1.5238   -0.4181 O   0  0  0  0  0  0  0  0  0  0  0  0
   -9.1904   -0.5008   -0.2177 C   0  0  0  0  0  0  0  0  0  0  0  0
   -9.0804   -1.3338    0.8748 C   0  0  0  0  0  0  0  0  0  0  0  0
   -8.9004   -2.6922    0.6698 C   0  0  0  0  0  0  0  0  0  0  0  0
   -8.8305   -3.2114   -0.6180 C   0  0  0  0  0  0  0  0  0  0  0  0
   -8.6313   -4.6771   -0.8509 C   0  0  0  0  0  0  0  0  0  0  0  0
   -8.9517   -2.3455   -1.7026 C   0  0  0  0  0  0  0  0  0  0  0  0
   -9.1384   -0.9893   -1.5066 C   0  0  0  0  0  0  0  0  0  0  0  0
   -5.6558   -0.0995    1.9365 H   0  0  0  0  0  0  0  0  0  0  0  0
   -6.2432   -1.3873    0.8555 H   0  0  0  0  0  0  0  0  0  0  0  0
   -4.8341   -0.4053    0.3811 H   0  0  0  0  0  0  0  0  0  0  0  0
   -4.5156    1.7706    1.0793 H   0  0  0  0  0  0  0  0  0  0  0  0
   -3.9093    5.4473    0.8126 H   0  0  0  0  0  0  0  0  0  0  0  0
   -1.7835    4.7115    1.2300 H   0  0  0  0  0  0  0  0  0  0  0  0
    0.0554    3.3630    1.3751 H   0  0  0  0  0  0  0  0  0  0  0  0
    2.0633    2.0818    1.2753 H   0  0  0  0  0  0  0  0  0  0  0  0
    1.6356   -0.7490    0.2035 H   0  0  0  0  0  0  0  0  0  0  0  0
    3.4606   -2.1664   -0.0762 H   0  0  0  0  0  0  0  0  0  0  0  0
    5.8757   -2.6740    0.1088 H   0  0  0  0  0  0  0  0  0  0  0  0
    8.4240   -0.9984   -2.1400 H   0  0  0  0  0  0  0  0  0  0  0  0
    9.7499   -2.6733   -3.4217 H   0  0  0  0  0  0  0  0  0  0  0  0
   11.8272   -3.8768   -3.6923 H   0  0  0  0  0  0  0  0  0  0  0  0
   11.7091   -4.9602   -2.3071 H   0  0  0  0  0  0  0  0  0  0  0  0
   13.0624   -3.8415   -2.4239 H   0  0  0  0  0  0  0  0  0  0  0  0
   12.4779   -2.9772   -0.1506 H   0  0  0  0  0  0  0  0  0  0  0  0
   11.1289   -1.2998    1.1095 H   0  0  0  0  0  0  0  0  0  0  0  0
    6.1684    3.0705    1.2804 H   0  0  0  0  0  0  0  0  0  0  0  0
    7.4546    3.0528    2.5135 H   0  0  0  0  0  0  0  0  0  0  0  0
    5.7652    2.7393    2.9964 H   0  0  0  0  0  0  0  0  0  0  0  0
    4.1471    1.6919    1.6413 H   0  0  0  0  0  0  0  0  0  0  0  0
   -5.7381    5.5012   -0.6192 H   0  0  0  0  0  0  0  0  0  0  0  0
   -7.8436    4.4527   -1.3784 H   0  0  0  0  0  0  0  0  0  0  0  0
   -9.1250   -0.9063    1.8635 H   0  0  0  0  0  0  0  0  0  0  0  0
   -8.8108   -3.3544    1.5186 H   0  0  0  0  0  0  0  0  0  0  0  0
   -9.4932   -5.0961   -1.3684 H   0  0  0  0  0  0  0  0  0  0  0  0
   -7.7558   -4.8452   -1.4756 H   0  0  0  0  0  0  0  0  0  0  0  0
   -8.4983   -5.2084    0.0874 H   0  0  0  0  0  0  0  0  0  0  0  0
   -8.8988   -2.7426   -2.7056 H   0  0  0  0  0  0  0  0  0  0  0  0
   -9.2378   -0.3049   -2.3335 H   0  0  0  0  0  0  0  0  0  0  0  0
  1  2  1  0  0  0  0
  2  3  1  0  0  0  0
  3  4  2  0  0  0  0
  4  5  1  0  0  0  0
  5  6  1  0  0  0  0
  6  7  2  0  0  0  0
  7  8  1  0  0  0  0
  8  9  2  0  0  0  0
  9 10  1  0  0  0  0
 10 11  1  0  0  0  0
 11 12  2  0  0  0  0
 12 13  1  0  0  0  0
 13 14  2  0  0  0  0
 14 15  1  0  0  0  0
 15 16  2  0  0  0  0
 16 17  1  0  0  0  0
 17 18  1  0  0  0  0
 18 19  2  0  0  0  0
 18 20  2  0  0  0  0
 18 21  1  0  0  0  0
 21 22  2  0  0  0  0
 22 23  1  0  0  0  0
 23 24  2  0  0  0  0
 24 25  1  0  0  0  0
 24 26  1  0  0  0  0
 26 27  2  0  0  0  0
 16 28  1  0  0  0  0
 28 29  1  0  0  0  0
 29 30  1  0  0  0  0
 28 31  2  0  0  0  0
 10 32  2  0  0  0  0
 32 33  1  0  0  0  0
 33 34  1  0  0  0  0
 33 35  1  0  0  0  0
 33 36  1  0  0  0  0
  5 37  2  0  0  0  0
 37 38  1  0  0  0  0
 38 39  2  0  0  0  0
 39 40  1  0  0  0  0
 40 41  1  0  0  0  0
 41 42  2  0  0  0  0
 41 43  2  0  0  0  0
 41 44  1  0  0  0  0
 44 45  2  0  0  0  0
 45 46  1  0  0  0  0
 46 47  2  0  0  0  0
 47 48  1  0  0  0  0
 47 49  1  0  0  0  0
 49 50  2  0  0  0  0
 39  3  1  0  0  0  0
 50 44  1  0  0  0  0
 36  8  1  0  0  0  0
 31 13  1  0  0  0  0
 27 21  1  0  0  0  0
  1 51  1  0  0  0  0
  1 52  1  0  0  0  0
  1 53  1  0  0  0  0
  4 54  1  0  0  0  0
  6 55  1  0  0  0  0
  7 56  1  0  0  0  0
  9 57  1  0  0  0  0
 11 58  1  0  0  0  0
 12 59  1  0  0  0  0
 14 60  1  0  0  0  0
 15 61  1  0  0  0  0
 22 62  1  0  0  0  0
 23 63  1  0  0  0  0
 25 64  1  0  0  0  0
 25 65  1  0  0  0  0
 25 66  1  0  0  0  0
 26 67  1  0  0  0  0
 27 68  1  0  0  0  0
 30 69  1  0  0  0  0
 30 70  1  0  0  0  0
 30 71  1  0  0  0  0
 31 72  1  0  0  0  0
 37 73  1  0  0  0  0
 38 74  1  0  0  0  0
 45 75  1  0  0  0  0
 46 76  1  0  0  0  0
 48 77  1  0  0  0  0
 48 78  1  0  0  0  0
 48 79  1  0  0  0  0
 49 80  1  0  0  0  0
 50 81  1  0  0  0  0
M  CHG  1  32   1
M  CHG  1  33  -1
M  END
