
  xtb     03212212253D
 energy: -56.125991003529 gnorm: 0.000443374300 xtb: 6.4.1 (afa7bdf)
 32 35  0     0  0            999 V2000
    0.2669   -3.8555    0.1341 C   0  0  0  0  0  0  0  0  0  0  0  0
   -0.0026   -2.4474    0.1459 N   0  0  0  0  0  0  0  0  0  0  0  0
   -1.2583   -1.9732    0.2109 N   0  0  0  0  0  0  0  0  0  0  0  0
   -1.2321   -0.6572    0.2156 C   0  0  0  0  0  0  0  0  0  0  0  0
   -2.4312    0.1525    0.2762 C   0  0  0  0  0  0  0  0  0  0  0  0
   -3.6868   -0.4546    0.3362 C   0  0  0  0  0  0  0  0  0  0  0  0
   -4.8283    0.3194    0.3929 C   0  0  0  0  0  0  0  0  0  0  0  0
   -4.7333    1.7029    0.3904 C   0  0  0  0  0  0  0  0  0  0  0  0
   -3.4893    2.3105    0.3311 C   0  0  0  0  0  0  0  0  0  0  0  0
   -2.3406    1.5445    0.2742 C   0  0  0  0  0  0  0  0  0  0  0  0
    0.1344   -0.2152    0.1514 C   0  0  0  0  0  0  0  0  0  0  0  0
    0.7221    0.9592    0.1304 N   0  0  0  0  0  0  0  0  0  0  0  0
    2.0647    0.9265    0.0648 C   0  0  0  0  0  0  0  0  0  0  0  0
    2.7637    2.1537    0.0414 C   0  0  0  0  0  0  0  0  0  0  0  0
    4.1266    2.1534   -0.0265 C   0  0  0  0  0  0  0  0  0  0  0  0
    4.9934    3.6467   -0.0544 Cl  0  0  0  0  0  0  0  0  0  0  0  0
    4.8635    0.9516   -0.0755 C   0  0  0  0  0  0  0  0  0  0  0  0
    4.2162   -0.2469   -0.0538 C   0  0  0  0  0  0  0  0  0  0  0  0
    2.8056   -0.3033    0.0178 C   0  0  0  0  0  0  0  0  0  0  0  0
    2.2034   -1.5051    0.0403 N   0  0  0  0  0  0  0  0  0  0  0  0
    0.8912   -1.4400    0.1077 C   0  0  0  0  0  0  0  0  0  0  0  0
   -0.0582   -4.3102    1.0720 H   0  0  0  0  0  0  0  0  0  0  0  0
    1.3402   -3.9861    0.0110 H   0  0  0  0  0  0  0  0  0  0  0  0
   -0.2669   -4.3300   -0.6907 H   0  0  0  0  0  0  0  0  0  0  0  0
   -3.7417   -1.5319    0.3372 H   0  0  0  0  0  0  0  0  0  0  0  0
   -5.7982   -0.1542    0.4392 H   0  0  0  0  0  0  0  0  0  0  0  0
   -5.6285    2.3060    0.4346 H   0  0  0  0  0  0  0  0  0  0  0  0
   -3.4160    3.3883    0.3291 H   0  0  0  0  0  0  0  0  0  0  0  0
   -1.3680    2.0090    0.2277 H   0  0  0  0  0  0  0  0  0  0  0  0
    2.1926    3.0673    0.0788 H   0  0  0  0  0  0  0  0  0  0  0  0
    5.9399    0.9996   -0.1298 H   0  0  0  0  0  0  0  0  0  0  0  0
    4.7552   -1.1805   -0.0897 H   0  0  0  0  0  0  0  0  0  0  0  0
  1  2  1  0  0  0  0
  2  3  1  0  0  0  0
  3  4  2  0  0  0  0
  4  5  1  0  0  0  0
  5  6  2  0  0  0  0
  6  7  1  0  0  0  0
  7  8  2  0  0  0  0
  8  9  1  0  0  0  0
  9 10  2  0  0  0  0
  4 11  1  0  0  0  0
 11 12  2  0  0  0  0
 12 13  1  0  0  0  0
 13 14  2  0  0  0  0
 14 15  1  0  0  0  0
 15 16  1  0  0  0  0
 15 17  2  0  0  0  0
 17 18  1  0  0  0  0
 18 19  2  0  0  0  0
 19 20  1  0  0  0  0
 20 21  2  0  0  0  0
 21  2  1  0  0  0  0
 10  5  1  0  0  0  0
 21 11  1  0  0  0  0
 19 13  1  0  0  0  0
  1 22  1  0  0  0  0
  1 23  1  0  0  0  0
  1 24  1  0  0  0  0
  6 25  1  0  0  0  0
  7 26  1  0  0  0  0
  8 27  1  0  0  0  0
  9 28  1  0  0  0  0
 10 29  1  0  0  0  0
 14 30  1  0  0  0  0
 17 31  1  0  0  0  0
 18 32  1  0  0  0  0
M  END
