
  xtb     03212211163D
 energy: -105.527556834536 gnorm: 0.000201870354 xtb: 6.4.1 (afa7bdf)
 58 62  0     0  0            999 V2000
   -1.4208   -4.1573   -1.4791 C   0  0  0  0  0  0  0  0  0  0  0  0
   -1.2634   -3.7126   -0.0329 C   0  0  0  0  0  0  0  0  0  0  0  0
   -1.3784   -2.2936    0.0708 O   0  0  0  0  0  0  0  0  0  0  0  0
   -0.2632   -1.5873    0.2868 C   0  0  0  0  0  0  0  0  0  0  0  0
    0.8407   -2.0725    0.3584 O   0  0  0  0  0  0  0  0  0  0  0  0
   -0.5946   -0.1642    0.4357 C   0  0  0  0  0  0  0  0  0  0  0  0
    0.1345    1.0192    0.1061 C   0  0  0  0  0  0  0  0  0  0  0  0
    1.4509    1.1776   -0.4860 C   0  0  0  0  0  0  0  0  0  0  0  0
    2.4752    0.3147   -0.2555 C   0  0  0  0  0  0  0  0  0  0  0  0
    3.7560    0.5164   -0.8437 C   0  0  0  0  0  0  0  0  0  0  0  0
    3.9187    1.6645   -1.6163 C   0  0  0  0  0  0  0  0  0  0  0  0
    5.1629    1.9937   -2.1888 C   0  0  0  0  0  0  0  0  0  0  0  0
    6.2316    1.1720   -1.9947 C   0  0  0  0  0  0  0  0  0  0  0  0
    6.1152   -0.0212   -1.2412 C   0  0  0  0  0  0  0  0  0  0  0  0
    7.2202   -0.8759   -1.0629 C   0  0  0  0  0  0  0  0  0  0  0  0
    7.0995   -2.0378   -0.3502 C   0  0  0  0  0  0  0  0  0  0  0  0
    5.8637   -2.3902    0.2039 C   0  0  0  0  0  0  0  0  0  0  0  0
    4.7712   -1.5760    0.0524 C   0  0  0  0  0  0  0  0  0  0  0  0
    4.8670   -0.3685   -0.6628 C   0  0  0  0  0  0  0  0  0  0  0  0
    2.9016    2.5167   -1.8563 O   0  0  0  0  0  0  0  0  0  0  0  0
    1.6362    2.3377   -1.3639 C   0  0  0  0  0  0  0  0  0  0  0  0
    0.7898    3.1233   -1.7017 O   0  0  0  0  0  0  0  0  0  0  0  0
   -0.6086    2.0796    0.3591 N   0  0  0  0  0  0  0  0  0  0  0  0
   -1.7721    1.6565    0.8293 N   0  0  0  0  0  0  0  0  0  0  0  0
   -2.7476    2.5908    1.2017 C   0  0  0  0  0  0  0  0  0  0  0  0
   -3.6604    2.3258    2.2154 C   0  0  0  0  0  0  0  0  0  0  0  0
   -4.6083    3.2814    2.5373 C   0  0  0  0  0  0  0  0  0  0  0  0
   -4.6440    4.4952    1.8735 C   0  0  0  0  0  0  0  0  0  0  0  0
   -3.7074    4.7546    0.8823 C   0  0  0  0  0  0  0  0  0  0  0  0
   -3.7326    6.2706    0.0638 Cl  0  0  0  0  0  0  0  0  0  0  0  0
   -2.7551    3.8123    0.5366 C   0  0  0  0  0  0  0  0  0  0  0  0
   -1.8232    0.3043    0.8888 C   0  0  0  0  0  0  0  0  0  0  0  0
   -3.0114   -0.4888    1.2914 C   0  0  0  0  0  0  0  0  0  0  0  0
   -3.0377   -1.2722    2.2034 O   0  0  0  0  0  0  0  0  0  0  0  0
   -4.0407   -0.1992    0.4946 O   0  0  0  0  0  0  0  0  0  0  0  0
   -5.2518   -0.9285    0.7057 C   0  0  0  0  0  0  0  0  0  0  0  0
   -5.2257   -2.2509   -0.0453 C   0  0  0  0  0  0  0  0  0  0  0  0
   -1.3857   -5.2416   -1.5321 H   0  0  0  0  0  0  0  0  0  0  0  0
   -2.3715   -3.8120   -1.8779 H   0  0  0  0  0  0  0  0  0  0  0  0
   -0.6170   -3.7479   -2.0864 H   0  0  0  0  0  0  0  0  0  0  0  0
   -0.2894   -4.0172    0.3624 H   0  0  0  0  0  0  0  0  0  0  0  0
   -2.0590   -4.1230    0.5951 H   0  0  0  0  0  0  0  0  0  0  0  0
    2.3110   -0.5303    0.3915 H   0  0  0  0  0  0  0  0  0  0  0  0
    5.2329    2.8992   -2.7700 H   0  0  0  0  0  0  0  0  0  0  0  0
    7.1916    1.4179   -2.4244 H   0  0  0  0  0  0  0  0  0  0  0  0
    8.1660   -0.5971   -1.5047 H   0  0  0  0  0  0  0  0  0  0  0  0
    7.9506   -2.6889   -0.2176 H   0  0  0  0  0  0  0  0  0  0  0  0
    5.7726   -3.3151    0.7537 H   0  0  0  0  0  0  0  0  0  0  0  0
    3.8262   -1.8774    0.4747 H   0  0  0  0  0  0  0  0  0  0  0  0
   -3.6188    1.3972    2.7628 H   0  0  0  0  0  0  0  0  0  0  0  0
   -5.3218    3.0817    3.3218 H   0  0  0  0  0  0  0  0  0  0  0  0
   -5.3822    5.2393    2.1258 H   0  0  0  0  0  0  0  0  0  0  0  0
   -2.0156    4.0000   -0.2262 H   0  0  0  0  0  0  0  0  0  0  0  0
   -5.3788   -1.1021    1.7794 H   0  0  0  0  0  0  0  0  0  0  0  0
   -6.0441   -0.2749    0.3359 H   0  0  0  0  0  0  0  0  0  0  0  0
   -5.0698   -2.0749   -1.1067 H   0  0  0  0  0  0  0  0  0  0  0  0
   -4.4163   -2.8710    0.3313 H   0  0  0  0  0  0  0  0  0  0  0  0
   -6.1681   -2.7721    0.0962 H   0  0  0  0  0  0  0  0  0  0  0  0
  1  2  1  0  0  0  0
  2  3  1  0  0  0  0
  3  4  1  0  0  0  0
  4  5  2  0  0  0  0
  4  6  1  0  0  0  0
  6  7  1  0  0  0  0
  7  8  1  0  0  0  0
  8  9  2  0  0  0  0
  9 10  1  0  0  0  0
 10 11  2  0  0  0  0
 11 12  1  0  0  0  0
 12 13  2  0  0  0  0
 13 14  1  0  0  0  0
 14 15  2  0  0  0  0
 15 16  1  0  0  0  0
 16 17  2  0  0  0  0
 17 18  1  0  0  0  0
 18 19  2  0  0  0  0
 11 20  1  0  0  0  0
 20 21  1  0  0  0  0
 21 22  2  0  0  0  0
  7 23  2  0  0  0  0
 23 24  1  0  0  0  0
 24 25  1  0  0  0  0
 25 26  2  0  0  0  0
 26 27  1  0  0  0  0
 27 28  2  0  0  0  0
 28 29  1  0  0  0  0
 29 30  1  0  0  0  0
 29 31  2  0  0  0  0
 24 32  1  0  0  0  0
 32 33  1  0  0  0  0
 33 34  2  0  0  0  0
 33 35  1  0  0  0  0
 35 36  1  0  0  0  0
 36 37  1  0  0  0  0
 32  6  2  0  0  0  0
 21  8  1  0  0  0  0
 31 25  1  0  0  0  0
 19 10  1  0  0  0  0
 19 14  1  0  0  0  0
  1 38  1  0  0  0  0
  1 39  1  0  0  0  0
  1 40  1  0  0  0  0
  2 41  1  0  0  0  0
  2 42  1  0  0  0  0
  9 43  1  0  0  0  0
 12 44  1  0  0  0  0
 13 45  1  0  0  0  0
 15 46  1  0  0  0  0
 16 47  1  0  0  0  0
 17 48  1  0  0  0  0
 18 49  1  0  0  0  0
 26 50  1  0  0  0  0
 27 51  1  0  0  0  0
 28 52  1  0  0  0  0
 31 53  1  0  0  0  0
 36 54  1  0  0  0  0
 36 55  1  0  0  0  0
 37 56  1  0  0  0  0
 37 57  1  0  0  0  0
 37 58  1  0  0  0  0
M  END
