
  xtb     03212210353D
 energy: -83.859674876273 gnorm: 0.000124059972 xtb: 6.4.1 (afa7bdf)
 54 58  0     0  0            999 V2000
   -4.4813   -0.7875   -2.6522 C   0  0  0  0  0  0  0  0  0  0  0  0
   -5.1652   -0.2928   -1.3834 C   0  0  0  0  0  0  0  0  0  0  0  0
   -4.5636    0.9825   -0.7628 C   0  0  0  0  0  0  0  0  0  0  0  0
   -3.3403    0.7787   -0.0069 N   0  0  0  0  0  0  0  0  0  0  0  0
   -3.4744    0.3080    1.3057 C   0  0  0  0  0  0  0  0  0  0  0  0
   -4.7060   -0.1465    1.7904 C   0  0  0  0  0  0  0  0  0  0  0  0
   -4.8650   -0.6150    3.0839 C   0  0  0  0  0  0  0  0  0  0  0  0
   -3.7943   -0.6641    3.9530 C   0  0  0  0  0  0  0  0  0  0  0  0
   -2.5668   -0.2146    3.5051 C   0  0  0  0  0  0  0  0  0  0  0  0
   -2.4127    0.2736    2.2179 C   0  0  0  0  0  0  0  0  0  0  0  0
   -0.8076    0.9071    1.8439 S   0  0  0  0  0  0  0  0  0  0  0  0
   -0.8938    0.9867    0.0825 C   0  0  0  0  0  0  0  0  0  0  0  0
    0.3233    1.1213   -0.5533 C   0  0  0  0  0  0  0  0  0  0  0  0
    0.4136    1.2968   -1.9324 C   0  0  0  0  0  0  0  0  0  0  0  0
    1.6914    1.4182   -2.6170 C   0  0  0  0  0  0  0  0  0  0  0  0
    2.8148    0.7728   -2.2903 C   0  0  0  0  0  0  0  0  0  0  0  0
    2.9217   -0.2855   -1.2863 C   0  0  0  0  0  0  0  0  0  0  0  0
    2.0666   -1.3389   -1.2814 C   0  0  0  0  0  0  0  0  0  0  0  0
    2.1692   -2.4287   -0.3368 C   0  0  0  0  0  0  0  0  0  0  0  0
    1.4264   -3.3790   -0.2857 O   0  0  0  0  0  0  0  0  0  0  0  0
    3.2032   -2.3713    0.5627 O   0  0  0  0  0  0  0  0  0  0  0  0
    4.0743   -1.3392    0.5849 C   0  0  0  0  0  0  0  0  0  0  0  0
    5.0796   -1.3768    1.5495 C   0  0  0  0  0  0  0  0  0  0  0  0
    6.0002   -0.3516    1.6465 C   0  0  0  0  0  0  0  0  0  0  0  0
    7.0810   -0.3769    2.6806 C   0  0  0  0  0  0  0  0  0  0  0  0
    5.9021    0.7302    0.7650 C   0  0  0  0  0  0  0  0  0  0  0  0
    4.9172    0.7759   -0.1912 C   0  0  0  0  0  0  0  0  0  0  0  0
    3.9877   -0.2639   -0.3123 C   0  0  0  0  0  0  0  0  0  0  0  0
   -0.7842    1.3828   -2.6318 C   0  0  0  0  0  0  0  0  0  0  0  0
   -1.9993    1.2103   -1.9985 C   0  0  0  0  0  0  0  0  0  0  0  0
   -2.1084    0.9794   -0.6219 C   0  0  0  0  0  0  0  0  0  0  0  0
   -3.4418   -1.0422   -2.4626 H   0  0  0  0  0  0  0  0  0  0  0  0
   -4.9876   -1.6818   -3.0095 H   0  0  0  0  0  0  0  0  0  0  0  0
   -4.5275   -0.0410   -3.4427 H   0  0  0  0  0  0  0  0  0  0  0  0
   -6.2145   -0.0851   -1.6077 H   0  0  0  0  0  0  0  0  0  0  0  0
   -5.1325   -1.0991   -0.6501 H   0  0  0  0  0  0  0  0  0  0  0  0
   -5.2955    1.4263   -0.0806 H   0  0  0  0  0  0  0  0  0  0  0  0
   -4.3837    1.7273   -1.5383 H   0  0  0  0  0  0  0  0  0  0  0  0
   -5.5829   -0.1417    1.1682 H   0  0  0  0  0  0  0  0  0  0  0  0
   -5.8423   -0.9468    3.4008 H   0  0  0  0  0  0  0  0  0  0  0  0
   -3.9071   -1.0363    4.9587 H   0  0  0  0  0  0  0  0  0  0  0  0
   -1.7050   -0.2185    4.1551 H   0  0  0  0  0  0  0  0  0  0  0  0
    1.2150    1.1301    0.0551 H   0  0  0  0  0  0  0  0  0  0  0  0
    1.7075    2.1040   -3.4552 H   0  0  0  0  0  0  0  0  0  0  0  0
    3.7298    0.9934   -2.8250 H   0  0  0  0  0  0  0  0  0  0  0  0
    1.2599   -1.4116   -1.9932 H   0  0  0  0  0  0  0  0  0  0  0  0
    5.1136   -2.2238    2.2168 H   0  0  0  0  0  0  0  0  0  0  0  0
    6.9362    0.4346    3.3930 H   0  0  0  0  0  0  0  0  0  0  0  0
    8.0551   -0.2380    2.2146 H   0  0  0  0  0  0  0  0  0  0  0  0
    7.0812   -1.3182    3.2225 H   0  0  0  0  0  0  0  0  0  0  0  0
    6.6129    1.5395    0.8439 H   0  0  0  0  0  0  0  0  0  0  0  0
    4.8470    1.6226   -0.8568 H   0  0  0  0  0  0  0  0  0  0  0  0
   -0.7715    1.5527   -3.6985 H   0  0  0  0  0  0  0  0  0  0  0  0
   -2.8757    1.2623   -2.6173 H   0  0  0  0  0  0  0  0  0  0  0  0
  1  2  1  0  0  0  0
  2  3  1  0  0  0  0
  3  4  1  0  0  0  0
  4  5  1  0  0  0  0
  5  6  2  0  0  0  0
  6  7  1  0  0  0  0
  7  8  2  0  0  0  0
  8  9  1  0  0  0  0
  9 10  2  0  0  0  0
 10 11  1  0  0  0  0
 11 12  1  0  0  0  0
 12 13  2  0  0  0  0
 13 14  1  0  0  0  0
 14 15  1  0  0  0  0
 15 16  2  0  0  0  0
 16 17  1  0  0  0  0
 17 18  2  0  0  0  0
 18 19  1  0  0  0  0
 19 20  2  0  0  0  0
 19 21  1  0  0  0  0
 21 22  1  0  0  0  0
 22 23  2  0  0  0  0
 23 24  1  0  0  0  0
 24 25  1  0  0  0  0
 24 26  2  0  0  0  0
 26 27  1  0  0  0  0
 27 28  2  0  0  0  0
 14 29  2  0  0  0  0
 29 30  1  0  0  0  0
 30 31  2  0  0  0  0
 31  4  1  0  0  0  0
 10  5  1  0  0  0  0
 31 12  1  0  0  0  0
 28 17  1  0  0  0  0
 28 22  1  0  0  0  0
  1 32  1  0  0  0  0
  1 33  1  0  0  0  0
  1 34  1  0  0  0  0
  2 35  1  0  0  0  0
  2 36  1  0  0  0  0
  3 37  1  0  0  0  0
  3 38  1  0  0  0  0
  6 39  1  0  0  0  0
  7 40  1  0  0  0  0
  8 41  1  0  0  0  0
  9 42  1  0  0  0  0
 13 43  1  0  0  0  0
 15 44  1  0  0  0  0
 16 45  1  0  0  0  0
 18 46  1  0  0  0  0
 23 47  1  0  0  0  0
 25 48  1  0  0  0  0
 25 49  1  0  0  0  0
 25 50  1  0  0  0  0
 26 51  1  0  0  0  0
 27 52  1  0  0  0  0
 29 53  1  0  0  0  0
 30 54  1  0  0  0  0
M  END
