
  xtb     03212211203D
 energy: -78.307812606371 gnorm: 0.000346969261 xtb: 6.4.1 (afa7bdf)
 50 53  0     0  0            999 V2000
    7.7493    0.2953    3.0050 N   0  0  0  0  0  0  0  0  0  0  0  0
    7.7309    0.8836    2.0196 C   0  0  0  0  0  0  0  0  0  0  0  0
    7.8098    1.6247    0.8213 C   0  0  0  0  0  0  0  0  0  0  0  0
    9.1107    2.1213    0.5646 C   0  0  0  0  0  0  0  0  0  0  0  0
   10.1605    2.5275    0.3476 N   0  0  0  0  0  0  0  0  0  0  0  0
    6.8107    1.8905   -0.0621 C   0  0  0  0  0  0  0  0  0  0  0  0
    5.4314    1.4985   -0.0175 C   0  0  0  0  0  0  0  0  0  0  0  0
    4.8645    0.7369    1.0143 C   0  0  0  0  0  0  0  0  0  0  0  0
    3.5329    0.3935    0.9845 C   0  0  0  0  0  0  0  0  0  0  0  0
    2.7022    0.7932   -0.0673 C   0  0  0  0  0  0  0  0  0  0  0  0
    1.2897    0.4208   -0.0922 C   0  0  0  0  0  0  0  0  0  0  0  0
    0.8653   -0.8201    0.3888 C   0  0  0  0  0  0  0  0  0  0  0  0
   -0.4631   -1.1792    0.3607 C   0  0  0  0  0  0  0  0  0  0  0  0
   -1.4282   -0.2993   -0.1378 C   0  0  0  0  0  0  0  0  0  0  0  0
   -2.7715   -0.6547   -0.1581 N   0  0  0  0  0  0  0  0  0  0  0  0
   -3.6129   -0.1954   -1.1819 C   0  0  0  0  0  0  0  0  0  0  0  0
   -4.9249    0.1802   -0.8976 C   0  0  0  0  0  0  0  0  0  0  0  0
   -5.7561    0.6203   -1.9094 C   0  0  0  0  0  0  0  0  0  0  0  0
   -5.2935    0.6992   -3.2128 C   0  0  0  0  0  0  0  0  0  0  0  0
   -3.9899    0.3287   -3.4995 C   0  0  0  0  0  0  0  0  0  0  0  0
   -3.1532   -0.1198   -2.4959 C   0  0  0  0  0  0  0  0  0  0  0  0
   -3.3011   -1.4835    0.8423 C   0  0  0  0  0  0  0  0  0  0  0  0
   -2.9010   -1.3348    2.1695 C   0  0  0  0  0  0  0  0  0  0  0  0
   -3.4275   -2.1541    3.1493 C   0  0  0  0  0  0  0  0  0  0  0  0
   -4.3629   -3.1232    2.8253 C   0  0  0  0  0  0  0  0  0  0  0  0
   -4.7685   -3.2694    1.5089 C   0  0  0  0  0  0  0  0  0  0  0  0
   -4.2419   -2.4603    0.5207 C   0  0  0  0  0  0  0  0  0  0  0  0
   -1.0102    0.9466   -0.6143 C   0  0  0  0  0  0  0  0  0  0  0  0
    0.3222    1.2924   -0.5975 C   0  0  0  0  0  0  0  0  0  0  0  0
    3.2644    1.5578   -1.0945 C   0  0  0  0  0  0  0  0  0  0  0  0
    4.5954    1.9004   -1.0718 C   0  0  0  0  0  0  0  0  0  0  0  0
    7.0938    2.4822   -0.9263 H   0  0  0  0  0  0  0  0  0  0  0  0
    5.4733    0.4176    1.8447 H   0  0  0  0  0  0  0  0  0  0  0  0
    3.1176   -0.1763    1.8020 H   0  0  0  0  0  0  0  0  0  0  0  0
    1.5939   -1.5290    0.7530 H   0  0  0  0  0  0  0  0  0  0  0  0
   -0.7665   -2.1529    0.7158 H   0  0  0  0  0  0  0  0  0  0  0  0
   -5.2843    0.1256    0.1196 H   0  0  0  0  0  0  0  0  0  0  0  0
   -6.7699    0.9107   -1.6767 H   0  0  0  0  0  0  0  0  0  0  0  0
   -5.9452    1.0457   -4.0003 H   0  0  0  0  0  0  0  0  0  0  0  0
   -3.6237    0.3799   -4.5142 H   0  0  0  0  0  0  0  0  0  0  0  0
   -2.1408   -0.4205   -2.7229 H   0  0  0  0  0  0  0  0  0  0  0  0
   -2.1806   -0.5716    2.4254 H   0  0  0  0  0  0  0  0  0  0  0  0
   -3.1113   -2.0285    4.1742 H   0  0  0  0  0  0  0  0  0  0  0  0
   -4.7738   -3.7595    3.5941 H   0  0  0  0  0  0  0  0  0  0  0  0
   -5.4948   -4.0246    1.2473 H   0  0  0  0  0  0  0  0  0  0  0  0
   -4.5530   -2.5804   -0.5068 H   0  0  0  0  0  0  0  0  0  0  0  0
   -1.7446    1.6451   -0.9871 H   0  0  0  0  0  0  0  0  0  0  0  0
    0.6151    2.2721   -0.9445 H   0  0  0  0  0  0  0  0  0  0  0  0
    2.6503    1.8624   -1.9288 H   0  0  0  0  0  0  0  0  0  0  0  0
    5.0109    2.4846   -1.8809 H   0  0  0  0  0  0  0  0  0  0  0  0
  1  2  3  0  0  0  0
  2  3  1  0  0  0  0
  3  4  1  0  0  0  0
  4  5  3  0  0  0  0
  3  6  2  0  0  0  0
  6  7  1  0  0  0  0
  7  8  2  0  0  0  0
  8  9  1  0  0  0  0
  9 10  2  0  0  0  0
 10 11  1  0  0  0  0
 11 12  2  0  0  0  0
 12 13  1  0  0  0  0
 13 14  2  0  0  0  0
 14 15  1  0  0  0  0
 15 16  1  0  0  0  0
 16 17  2  0  0  0  0
 17 18  1  0  0  0  0
 18 19  2  0  0  0  0
 19 20  1  0  0  0  0
 20 21  2  0  0  0  0
 15 22  1  0  0  0  0
 22 23  2  0  0  0  0
 23 24  1  0  0  0  0
 24 25  2  0  0  0  0
 25 26  1  0  0  0  0
 26 27  2  0  0  0  0
 14 28  1  0  0  0  0
 28 29  2  0  0  0  0
 10 30  1  0  0  0  0
 30 31  2  0  0  0  0
 31  7  1  0  0  0  0
 29 11  1  0  0  0  0
 21 16  1  0  0  0  0
 27 22  1  0  0  0  0
  6 32  1  0  0  0  0
  8 33  1  0  0  0  0
  9 34  1  0  0  0  0
 12 35  1  0  0  0  0
 13 36  1  0  0  0  0
 17 37  1  0  0  0  0
 18 38  1  0  0  0  0
 19 39  1  0  0  0  0
 20 40  1  0  0  0  0
 21 41  1  0  0  0  0
 23 42  1  0  0  0  0
 24 43  1  0  0  0  0
 25 44  1  0  0  0  0
 26 45  1  0  0  0  0
 27 46  1  0  0  0  0
 28 47  1  0  0  0  0
 29 48  1  0  0  0  0
 30 49  1  0  0  0  0
 31 50  1  0  0  0  0
M  END
