
  xtb     03212212033D
 energy: -82.399126054281 gnorm: 0.000180647192 xtb: 6.4.1 (afa7bdf)
 56 62  0     0  0            999 V2000
    4.8530   -2.6772   -2.9093 C   0  0  0  0  0  0  0  0  0  0  0  0
    4.4046   -1.6184   -1.9440 C   0  0  0  0  0  0  0  0  0  0  0  0
    3.0930   -1.4901   -1.5455 C   0  0  0  0  0  0  0  0  0  0  0  0
    2.7351   -0.3901   -0.7140 C   0  0  0  0  0  0  0  0  0  0  0  0
    3.5992    0.4909   -0.2743 N   0  0  0  0  0  0  0  0  0  0  0  0
    4.8973    0.3468   -0.5869 C   0  0  0  0  0  0  0  0  0  0  0  0
    5.8112    1.2842   -0.0619 C   0  0  0  0  0  0  0  0  0  0  0  0
    7.1447    1.1801   -0.3386 C   0  0  0  0  0  0  0  0  0  0  0  0
    7.6146    0.1349   -1.1463 C   0  0  0  0  0  0  0  0  0  0  0  0
    6.7486   -0.7825   -1.6769 C   0  0  0  0  0  0  0  0  0  0  0  0
    5.3648   -0.7039   -1.4224 C   0  0  0  0  0  0  0  0  0  0  0  0
    1.3331   -0.1893   -0.3475 C   0  0  0  0  0  0  0  0  0  0  0  0
    0.8888    1.0577    0.0849 C   0  0  0  0  0  0  0  0  0  0  0  0
   -0.4331    1.2570    0.4308 C   0  0  0  0  0  0  0  0  0  0  0  0
   -1.3335    0.1905    0.3455 C   0  0  0  0  0  0  0  0  0  0  0  0
   -0.8892   -1.0564   -0.0869 C   0  0  0  0  0  0  0  0  0  0  0  0
    0.4326   -1.2558   -0.4327 C   0  0  0  0  0  0  0  0  0  0  0  0
    0.9558   -2.5909   -0.8677 C   0  0  0  0  0  0  0  0  0  0  0  0
    1.9919   -2.4201   -1.9779 C   0  0  0  0  0  0  0  0  0  0  0  0
   -2.7354    0.3910    0.7126 C   0  0  0  0  0  0  0  0  0  0  0  0
   -3.5995   -0.4903    0.2733 N   0  0  0  0  0  0  0  0  0  0  0  0
   -4.8973   -0.3469    0.5871 C   0  0  0  0  0  0  0  0  0  0  0  0
   -5.8112   -1.2845    0.0625 C   0  0  0  0  0  0  0  0  0  0  0  0
   -7.1445   -1.1815    0.3405 C   0  0  0  0  0  0  0  0  0  0  0  0
   -7.6142   -0.1370    1.1492 C   0  0  0  0  0  0  0  0  0  0  0  0
   -6.7483    0.7808    1.6793 C   0  0  0  0  0  0  0  0  0  0  0  0
   -5.3646    0.7032    1.4234 C   0  0  0  0  0  0  0  0  0  0  0  0
   -4.4044    1.6181    1.9443 C   0  0  0  0  0  0  0  0  0  0  0  0
   -4.8522    2.6764    2.9105 C   0  0  0  0  0  0  0  0  0  0  0  0
   -3.0931    1.4907    1.5444 C   0  0  0  0  0  0  0  0  0  0  0  0
   -1.9924    2.4216    1.9759 C   0  0  0  0  0  0  0  0  0  0  0  0
   -0.9564    2.5922    0.8656 C   0  0  0  0  0  0  0  0  0  0  0  0
    5.5596   -2.2586   -3.6226 H   0  0  0  0  0  0  0  0  0  0  0  0
    4.0186   -3.0860   -3.4702 H   0  0  0  0  0  0  0  0  0  0  0  0
    5.3473   -3.4909   -2.3773 H   0  0  0  0  0  0  0  0  0  0  0  0
    5.4188    2.0705    0.5638 H   0  0  0  0  0  0  0  0  0  0  0  0
    7.8457    1.8962    0.0650 H   0  0  0  0  0  0  0  0  0  0  0  0
    8.6732    0.0558   -1.3480 H   0  0  0  0  0  0  0  0  0  0  0  0
    7.1376   -1.5849   -2.2849 H   0  0  0  0  0  0  0  0  0  0  0  0
    1.6039    1.8640    0.1411 H   0  0  0  0  0  0  0  0  0  0  0  0
   -1.6043   -1.8628   -0.1430 H   0  0  0  0  0  0  0  0  0  0  0  0
    1.4281   -3.0845   -0.0110 H   0  0  0  0  0  0  0  0  0  0  0  0
    0.1380   -3.2272   -1.2100 H   0  0  0  0  0  0  0  0  0  0  0  0
    2.3909   -3.3998   -2.2410 H   0  0  0  0  0  0  0  0  0  0  0  0
    1.5017   -2.0020   -2.8646 H   0  0  0  0  0  0  0  0  0  0  0  0
   -5.4189   -2.0703   -0.5641 H   0  0  0  0  0  0  0  0  0  0  0  0
   -7.8454   -1.8978   -0.0627 H   0  0  0  0  0  0  0  0  0  0  0  0
   -8.6726   -0.0586    1.3520 H   0  0  0  0  0  0  0  0  0  0  0  0
   -7.1372    1.5827    2.2881 H   0  0  0  0  0  0  0  0  0  0  0  0
   -4.0175    3.0839    3.4719 H   0  0  0  0  0  0  0  0  0  0  0  0
   -5.3457    3.4910    2.3792 H   0  0  0  0  0  0  0  0  0  0  0  0
   -5.5592    2.2578    3.6233 H   0  0  0  0  0  0  0  0  0  0  0  0
   -1.5020    2.0044    2.8629 H   0  0  0  0  0  0  0  0  0  0  0  0
   -2.3919    3.4012    2.2383 H   0  0  0  0  0  0  0  0  0  0  0  0
   -0.1387    3.2287    1.2077 H   0  0  0  0  0  0  0  0  0  0  0  0
   -1.4289    3.0854    0.0088 H   0  0  0  0  0  0  0  0  0  0  0  0
  1  2  1  0  0  0  0
  2  3  2  0  0  0  0
  3  4  1  0  0  0  0
  4  5  2  0  0  0  0
  5  6  1  0  0  0  0
  6  7  2  0  0  0  0
  7  8  1  0  0  0  0
  8  9  2  0  0  0  0
  9 10  1  0  0  0  0
 10 11  2  0  0  0  0
  4 12  1  0  0  0  0
 12 13  2  0  0  0  0
 13 14  1  0  0  0  0
 14 15  2  0  0  0  0
 15 16  1  0  0  0  0
 16 17  2  0  0  0  0
 17 18  1  0  0  0  0
 18 19  1  0  0  0  0
 15 20  1  0  0  0  0
 20 21  2  0  0  0  0
 21 22  1  0  0  0  0
 22 23  2  0  0  0  0
 23 24  1  0  0  0  0
 24 25  2  0  0  0  0
 25 26  1  0  0  0  0
 26 27  2  0  0  0  0
 27 28  1  0  0  0  0
 28 29  1  0  0  0  0
 28 30  2  0  0  0  0
 30 31  1  0  0  0  0
 31 32  1  0  0  0  0
 11  2  1  0  0  0  0
 17 12  1  0  0  0  0
 30 20  1  0  0  0  0
 19  3  1  0  0  0  0
 27 22  1  0  0  0  0
 11  6  1  0  0  0  0
 32 14  1  0  0  0  0
  1 33  1  0  0  0  0
  1 34  1  0  0  0  0
  1 35  1  0  0  0  0
  7 36  1  0  0  0  0
  8 37  1  0  0  0  0
  9 38  1  0  0  0  0
 10 39  1  0  0  0  0
 13 40  1  0  0  0  0
 16 41  1  0  0  0  0
 18 42  1  0  0  0  0
 18 43  1  0  0  0  0
 19 44  1  0  0  0  0
 19 45  1  0  0  0  0
 23 46  1  0  0  0  0
 24 47  1  0  0  0  0
 25 48  1  0  0  0  0
 26 49  1  0  0  0  0
 29 50  1  0  0  0  0
 29 51  1  0  0  0  0
 29 52  1  0  0  0  0
 31 53  1  0  0  0  0
 31 54  1  0  0  0  0
 32 55  1  0  0  0  0
 32 56  1  0  0  0  0
M  END
