
  xtb     03212211273D
 energy: -68.499571667597 gnorm: 0.000270022532 xtb: 6.4.1 (afa7bdf)
 43 45  0     0  0            999 V2000
   -7.7476   -0.7078   -0.1177 C   0  0  0  0  0  0  0  0  0  0  0  0
   -6.5734   -1.4474   -0.5089 N   0  0  0  0  0  0  0  0  0  0  0  0
   -6.7434   -2.7127   -1.1783 C   0  0  0  0  0  0  0  0  0  0  0  0
   -5.3249   -0.9383   -0.2879 C   0  0  0  0  0  0  0  0  0  0  0  0
   -5.1347    0.2380    0.4584 C   0  0  0  0  0  0  0  0  0  0  0  0
   -3.8786    0.7444    0.6887 C   0  0  0  0  0  0  0  0  0  0  0  0
   -2.7305    0.1163    0.1915 C   0  0  0  0  0  0  0  0  0  0  0  0
   -1.3951    0.6026    0.4100 C   0  0  0  0  0  0  0  0  0  0  0  0
   -1.0334    1.6885    1.1231 C   0  0  0  0  0  0  0  0  0  0  0  0
    0.3217    2.0961    1.2949 C   0  0  0  0  0  0  0  0  0  0  0  0
    0.8722    3.1566    1.9920 C   0  0  0  0  0  0  0  0  0  0  0  0
    2.2137    3.1295    1.8649 N   0  0  0  0  0  0  0  0  0  0  0  0
    2.4684    2.0865    1.1149 C   0  0  0  0  0  0  0  0  0  0  0  0
    3.7289    1.6513    0.7070 C   0  0  0  0  0  0  0  0  0  0  0  0
    4.8209    1.2702    0.3507 C   0  0  0  0  0  0  0  0  0  0  0  0
    6.0985    0.8472   -0.0519 C   0  0  0  0  0  0  0  0  0  0  0  0
    7.2335    1.5454    0.3781 C   0  0  0  0  0  0  0  0  0  0  0  0
    8.4880    1.1355   -0.0141 C   0  0  0  0  0  0  0  0  0  0  0  0
    8.6291    0.0195   -0.8439 C   0  0  0  0  0  0  0  0  0  0  0  0
    9.9153   -0.4013   -1.2473 C   0  0  0  0  0  0  0  0  0  0  0  0
   10.9595   -0.7449   -1.5746 N   0  0  0  0  0  0  0  0  0  0  0  0
    7.4993   -0.6808   -1.2756 C   0  0  0  0  0  0  0  0  0  0  0  0
    6.2451   -0.2701   -0.8825 C   0  0  0  0  0  0  0  0  0  0  0  0
    1.3524    1.4153    0.7356 O   0  0  0  0  0  0  0  0  0  0  0  0
   -2.9229   -1.0520   -0.5563 C   0  0  0  0  0  0  0  0  0  0  0  0
   -4.1743   -1.5680   -0.7918 C   0  0  0  0  0  0  0  0  0  0  0  0
   -7.7140    0.3130   -0.5080 H   0  0  0  0  0  0  0  0  0  0  0  0
   -7.8485   -0.6621    0.9721 H   0  0  0  0  0  0  0  0  0  0  0  0
   -8.6333   -1.1924   -0.5213 H   0  0  0  0  0  0  0  0  0  0  0  0
   -6.1294   -3.4844   -0.7074 H   0  0  0  0  0  0  0  0  0  0  0  0
   -6.4739   -2.6499   -2.2387 H   0  0  0  0  0  0  0  0  0  0  0  0
   -7.7831   -3.0234   -1.1081 H   0  0  0  0  0  0  0  0  0  0  0  0
   -5.9815    0.7594    0.8738 H   0  0  0  0  0  0  0  0  0  0  0  0
   -3.7856    1.6489    1.2702 H   0  0  0  0  0  0  0  0  0  0  0  0
   -0.6066    0.0193   -0.0502 H   0  0  0  0  0  0  0  0  0  0  0  0
   -1.7572    2.3194    1.6160 H   0  0  0  0  0  0  0  0  0  0  0  0
    0.3792    3.9160    2.5630 H   0  0  0  0  0  0  0  0  0  0  0  0
    7.1114    2.4057    1.0187 H   0  0  0  0  0  0  0  0  0  0  0  0
    9.3678    1.6692    0.3141 H   0  0  0  0  0  0  0  0  0  0  0  0
    7.6197   -1.5416   -1.9170 H   0  0  0  0  0  0  0  0  0  0  0  0
    5.3662   -0.8043   -1.2112 H   0  0  0  0  0  0  0  0  0  0  0  0
   -2.0606   -1.5625   -0.9624 H   0  0  0  0  0  0  0  0  0  0  0  0
   -4.2583   -2.4653   -1.3828 H   0  0  0  0  0  0  0  0  0  0  0  0
  1  2  1  0  0  0  0
  2  3  1  0  0  0  0
  2  4  1  0  0  0  0
  4  5  2  0  0  0  0
  5  6  1  0  0  0  0
  6  7  2  0  0  0  0
  7  8  1  0  0  0  0
  8  9  2  0  0  0  0
  9 10  1  0  0  0  0
 10 11  2  0  0  0  0
 11 12  1  0  0  0  0
 12 13  2  0  0  0  0
 13 14  1  0  0  0  0
 14 15  3  0  0  0  0
 15 16  1  0  0  0  0
 16 17  2  0  0  0  0
 17 18  1  0  0  0  0
 18 19  2  0  0  0  0
 19 20  1  0  0  0  0
 20 21  3  0  0  0  0
 19 22  1  0  0  0  0
 22 23  2  0  0  0  0
 13 24  1  0  0  0  0
  7 25  1  0  0  0  0
 25 26  2  0  0  0  0
 26  4  1  0  0  0  0
 24 10  1  0  0  0  0
 23 16  1  0  0  0  0
  1 27  1  0  0  0  0
  1 28  1  0  0  0  0
  1 29  1  0  0  0  0
  3 30  1  0  0  0  0
  3 31  1  0  0  0  0
  3 32  1  0  0  0  0
  5 33  1  0  0  0  0
  6 34  1  0  0  0  0
  8 35  1  0  0  0  0
  9 36  1  0  0  0  0
 11 37  1  0  0  0  0
 17 38  1  0  0  0  0
 18 39  1  0  0  0  0
 22 40  1  0  0  0  0
 23 41  1  0  0  0  0
 25 42  1  0  0  0  0
 26 43  1  0  0  0  0
M  END
