
  xtb     03212211083D
 energy: -102.274982387481 gnorm: 0.000313869570 xtb: 6.4.1 (afa7bdf)
 58 61  0     0  0            999 V2000
    0.4356    4.9218    1.8898 C   0  0  0  0  0  0  0  0  0  0  0  0
   -0.1919    4.6675    0.5269 C   0  0  0  0  0  0  0  0  0  0  0  0
   -0.5713    3.2965    0.4066 O   0  0  0  0  0  0  0  0  0  0  0  0
    0.3317    2.4682   -0.1038 C   0  0  0  0  0  0  0  0  0  0  0  0
    1.4073    2.7872   -0.5488 O   0  0  0  0  0  0  0  0  0  0  0  0
   -0.1448    1.0734   -0.0798 C   0  0  0  0  0  0  0  0  0  0  0  0
    0.6573   -0.0620    0.1723 C   0  0  0  0  0  0  0  0  0  0  0  0
    2.0689   -0.0392    0.5200 C   0  0  0  0  0  0  0  0  0  0  0  0
    2.9926   -0.8704   -0.0274 C   0  0  0  0  0  0  0  0  0  0  0  0
    2.5210   -2.0590   -1.1669 Cl  0  0  0  0  0  0  0  0  0  0  0  0
    4.3827   -0.7492    0.3099 C   0  0  0  0  0  0  0  0  0  0  0  0
    5.3972   -1.5490   -0.2269 C   0  0  0  0  0  0  0  0  0  0  0  0
    6.7175   -1.3581    0.1234 C   0  0  0  0  0  0  0  0  0  0  0  0
    7.8061   -2.2084   -0.4540 C   0  0  0  0  0  0  0  0  0  0  0  0
    7.0338   -0.3424    1.0317 C   0  0  0  0  0  0  0  0  0  0  0  0
    6.0559    0.4580    1.5771 C   0  0  0  0  0  0  0  0  0  0  0  0
    4.7229    0.2609    1.2226 C   0  0  0  0  0  0  0  0  0  0  0  0
    3.7944    1.0593    1.7950 O   0  0  0  0  0  0  0  0  0  0  0  0
    2.4703    0.9648    1.5131 C   0  0  0  0  0  0  0  0  0  0  0  0
    1.7079    1.6791    2.1146 O   0  0  0  0  0  0  0  0  0  0  0  0
   -0.0654   -1.1660    0.0629 N   0  0  0  0  0  0  0  0  0  0  0  0
   -1.3033   -0.7916   -0.2179 N   0  0  0  0  0  0  0  0  0  0  0  0
   -2.2874   -1.7766   -0.4637 C   0  0  0  0  0  0  0  0  0  0  0  0
   -2.0989   -2.6627   -1.5155 C   0  0  0  0  0  0  0  0  0  0  0  0
   -3.0622   -3.6229   -1.7659 C   0  0  0  0  0  0  0  0  0  0  0  0
   -4.1964   -3.6958   -0.9764 C   0  0  0  0  0  0  0  0  0  0  0  0
   -4.3792   -2.8249    0.0915 C   0  0  0  0  0  0  0  0  0  0  0  0
   -5.5890   -2.9262    0.9685 C   0  0  0  0  0  0  0  0  0  0  0  0
   -3.4062   -1.8686    0.3497 C   0  0  0  0  0  0  0  0  0  0  0  0
   -1.4113    0.5602   -0.3282 C   0  0  0  0  0  0  0  0  0  0  0  0
   -2.5991    1.2925   -0.8059 C   0  0  0  0  0  0  0  0  0  0  0  0
   -2.5399    2.2204   -1.5698 O   0  0  0  0  0  0  0  0  0  0  0  0
   -3.7335    0.7976   -0.3003 O   0  0  0  0  0  0  0  0  0  0  0  0
   -4.9587    1.3567   -0.7744 C   0  0  0  0  0  0  0  0  0  0  0  0
   -5.4462    0.6095   -2.0072 C   0  0  0  0  0  0  0  0  0  0  0  0
   -0.2889    4.7368    2.6787 H   0  0  0  0  0  0  0  0  0  0  0  0
    1.2765    4.2471    2.0326 H   0  0  0  0  0  0  0  0  0  0  0  0
    0.7815    5.9498    1.9524 H   0  0  0  0  0  0  0  0  0  0  0  0
   -1.1137    5.2385    0.3937 H   0  0  0  0  0  0  0  0  0  0  0  0
    0.5152    4.9083   -0.2734 H   0  0  0  0  0  0  0  0  0  0  0  0
    5.1241   -2.3222   -0.9282 H   0  0  0  0  0  0  0  0  0  0  0  0
    7.3962   -2.9852   -1.0931 H   0  0  0  0  0  0  0  0  0  0  0  0
    8.4877   -1.5965   -1.0434 H   0  0  0  0  0  0  0  0  0  0  0  0
    8.3839   -2.6764    0.3413 H   0  0  0  0  0  0  0  0  0  0  0  0
    8.0657   -0.1859    1.3087 H   0  0  0  0  0  0  0  0  0  0  0  0
    6.2931    1.2417    2.2784 H   0  0  0  0  0  0  0  0  0  0  0  0
   -1.2103   -2.5896   -2.1226 H   0  0  0  0  0  0  0  0  0  0  0  0
   -2.9303   -4.3132   -2.5852 H   0  0  0  0  0  0  0  0  0  0  0  0
   -4.9479   -4.4430   -1.1865 H   0  0  0  0  0  0  0  0  0  0  0  0
   -5.3872   -3.6000    1.8016 H   0  0  0  0  0  0  0  0  0  0  0  0
   -6.4383   -3.3208    0.4158 H   0  0  0  0  0  0  0  0  0  0  0  0
   -5.8513   -1.9544    1.3790 H   0  0  0  0  0  0  0  0  0  0  0  0
   -3.5174   -1.1910    1.1814 H   0  0  0  0  0  0  0  0  0  0  0  0
   -4.8023    2.4157   -1.0022 H   0  0  0  0  0  0  0  0  0  0  0  0
   -5.6623    1.2525    0.0542 H   0  0  0  0  0  0  0  0  0  0  0  0
   -6.4124    0.9997   -2.3133 H   0  0  0  0  0  0  0  0  0  0  0  0
   -4.7397    0.7394   -2.8235 H   0  0  0  0  0  0  0  0  0  0  0  0
   -5.5397   -0.4522   -1.7895 H   0  0  0  0  0  0  0  0  0  0  0  0
  1  2  1  0  0  0  0
  2  3  1  0  0  0  0
  3  4  1  0  0  0  0
  4  5  2  0  0  0  0
  4  6  1  0  0  0  0
  6  7  1  0  0  0  0
  7  8  1  0  0  0  0
  8  9  2  0  0  0  0
  9 10  1  0  0  0  0
  9 11  1  0  0  0  0
 11 12  2  0  0  0  0
 12 13  1  0  0  0  0
 13 14  1  0  0  0  0
 13 15  2  0  0  0  0
 15 16  1  0  0  0  0
 16 17  2  0  0  0  0
 17 18  1  0  0  0  0
 18 19  1  0  0  0  0
 19 20  2  0  0  0  0
  7 21  2  0  0  0  0
 21 22  1  0  0  0  0
 22 23  1  0  0  0  0
 23 24  2  0  0  0  0
 24 25  1  0  0  0  0
 25 26  2  0  0  0  0
 26 27  1  0  0  0  0
 27 28  1  0  0  0  0
 27 29  2  0  0  0  0
 22 30  1  0  0  0  0
 30 31  1  0  0  0  0
 31 32  2  0  0  0  0
 31 33  1  0  0  0  0
 33 34  1  0  0  0  0
 34 35  1  0  0  0  0
 30  6  2  0  0  0  0
 19  8  1  0  0  0  0
 29 23  1  0  0  0  0
 17 11  1  0  0  0  0
  1 36  1  0  0  0  0
  1 37  1  0  0  0  0
  1 38  1  0  0  0  0
  2 39  1  0  0  0  0
  2 40  1  0  0  0  0
 12 41  1  0  0  0  0
 14 42  1  0  0  0  0
 14 43  1  0  0  0  0
 14 44  1  0  0  0  0
 15 45  1  0  0  0  0
 16 46  1  0  0  0  0
 24 47  1  0  0  0  0
 25 48  1  0  0  0  0
 26 49  1  0  0  0  0
 28 50  1  0  0  0  0
 28 51  1  0  0  0  0
 28 52  1  0  0  0  0
 29 53  1  0  0  0  0
 34 54  1  0  0  0  0
 34 55  1  0  0  0  0
 35 56  1  0  0  0  0
 35 57  1  0  0  0  0
 35 58  1  0  0  0  0
M  END
