
  xtb     03212212183D
 energy: -52.445507063813 gnorm: 0.000338152853 xtb: 6.4.1 (afa7bdf)
 29 31  0     0  0            999 V2000
   -0.8364    0.9728    2.8884 N   0  0  0  0  0  0  0  0  0  0  0  0
   -0.6570    0.6457    1.8042 C   0  0  0  0  0  0  0  0  0  0  0  0
   -0.3780    0.2316    0.4788 C   0  0  0  0  0  0  0  0  0  0  0  0
   -1.2757    0.1827   -0.5382 C   0  0  0  0  0  0  0  0  0  0  0  0
   -2.6759    0.5149   -0.5607 C   0  0  0  0  0  0  0  0  0  0  0  0
   -3.3975    0.9750    0.5481 C   0  0  0  0  0  0  0  0  0  0  0  0
   -4.7402    1.2725    0.4447 C   0  0  0  0  0  0  0  0  0  0  0  0
   -5.3915    1.1161   -0.7717 C   0  0  0  0  0  0  0  0  0  0  0  0
   -7.0688    1.4884   -0.8987 Cl  0  0  0  0  0  0  0  0  0  0  0  0
   -4.7009    0.6616   -1.8874 C   0  0  0  0  0  0  0  0  0  0  0  0
   -3.3598    0.3662   -1.7770 C   0  0  0  0  0  0  0  0  0  0  0  0
    1.0025   -0.1506    0.2928 C   0  0  0  0  0  0  0  0  0  0  0  0
    1.8862   -0.1211    1.2211 N   0  0  0  0  0  0  0  0  0  0  0  0
    3.1089   -0.5272    0.7983 C   0  0  0  0  0  0  0  0  0  0  0  0
    4.2616   -0.6016    1.5781 C   0  0  0  0  0  0  0  0  0  0  0  0
    5.4302   -1.0370    0.9936 C   0  0  0  0  0  0  0  0  0  0  0  0
    5.4726   -1.3996   -0.3527 C   0  0  0  0  0  0  0  0  0  0  0  0
    4.3444   -1.3347   -1.1463 C   0  0  0  0  0  0  0  0  0  0  0  0
    3.1657   -0.8982   -0.5668 C   0  0  0  0  0  0  0  0  0  0  0  0
    1.6025   -0.7104   -1.2925 S   0  0  0  0  0  0  0  0  0  0  0  0
   -0.8840   -0.1602   -1.4901 H   0  0  0  0  0  0  0  0  0  0  0  0
   -2.9051    1.1007    1.4977 H   0  0  0  0  0  0  0  0  0  0  0  0
   -5.2857    1.6259    1.3053 H   0  0  0  0  0  0  0  0  0  0  0  0
   -5.2147    0.5430   -2.8283 H   0  0  0  0  0  0  0  0  0  0  0  0
   -2.8238    0.0127   -2.6458 H   0  0  0  0  0  0  0  0  0  0  0  0
    4.2116   -0.3177    2.6166 H   0  0  0  0  0  0  0  0  0  0  0  0
    6.3313   -1.1000    1.5846 H   0  0  0  0  0  0  0  0  0  0  0  0
    6.4031   -1.7372   -0.7833 H   0  0  0  0  0  0  0  0  0  0  0  0
    4.3744   -1.6145   -2.1878 H   0  0  0  0  0  0  0  0  0  0  0  0
  1  2  3  0  0  0  0
  2  3  1  0  0  0  0
  3  4  2  0  0  0  0
  4  5  1  0  0  0  0
  5  6  2  0  0  0  0
  6  7  1  0  0  0  0
  7  8  2  0  0  0  0
  8  9  1  0  0  0  0
  8 10  1  0  0  0  0
 10 11  2  0  0  0  0
  3 12  1  0  0  0  0
 12 13  2  0  0  0  0
 13 14  1  0  0  0  0
 14 15  2  0  0  0  0
 15 16  1  0  0  0  0
 16 17  2  0  0  0  0
 17 18  1  0  0  0  0
 18 19  2  0  0  0  0
 19 20  1  0  0  0  0
 11  5  1  0  0  0  0
 20 12  1  0  0  0  0
 19 14  1  0  0  0  0
  4 21  1  0  0  0  0
  6 22  1  0  0  0  0
  7 23  1  0  0  0  0
 10 24  1  0  0  0  0
 11 25  1  0  0  0  0
 15 26  1  0  0  0  0
 16 27  1  0  0  0  0
 17 28  1  0  0  0  0
 18 29  1  0  0  0  0
M  END
