
  xtb     03212211003D
 energy: -142.972688445209 gnorm: 0.000302059155 xtb: 6.4.1 (afa7bdf)
 84 90  0     0  0            999 V2000
   -9.7993    1.8707    0.1175 C   0  0  0  0  0  0  0  0  0  0  0  0
   -9.0980    0.8229   -0.5021 O   0  0  0  0  0  0  0  0  0  0  0  0
   -7.7446    0.7811   -0.3630 C   0  0  0  0  0  0  0  0  0  0  0  0
   -6.9822    1.6959    0.3425 C   0  0  0  0  0  0  0  0  0  0  0  0
   -5.6036    1.5566    0.4228 C   0  0  0  0  0  0  0  0  0  0  0  0
   -4.9655    0.5020   -0.2029 C   0  0  0  0  0  0  0  0  0  0  0  0
   -3.4925    0.3456   -0.1178 C   0  0  0  0  0  0  0  0  0  0  0  0
   -2.7356    0.6289   -1.2432 C   0  0  0  0  0  0  0  0  0  0  0  0
   -1.4060    0.5464   -1.3286 N   0  0  0  0  0  0  0  0  0  0  0  0
   -1.0094    0.9344   -2.5423 C   0  0  0  0  0  0  0  0  0  0  0  0
    0.2816    0.9679   -3.0222 C   0  0  0  0  0  0  0  0  0  0  0  0
    1.4681    0.6205   -2.3802 C   0  0  0  0  0  0  0  0  0  0  0  0
    2.7618    0.6500   -2.9617 C   0  0  0  0  0  0  0  0  0  0  0  0
    3.6592    0.2342   -2.0170 C   0  0  0  0  0  0  0  0  0  0  0  0
    2.9345   -0.0522   -0.8324 C   0  0  0  0  0  0  0  0  0  0  0  0
    1.6202    0.1904   -1.0977 N   0  0  0  0  0  0  0  0  0  0  0  0
    3.4511   -0.5052    0.3883 C   0  0  0  0  0  0  0  0  0  0  0  0
    4.9219   -0.6842    0.4621 C   0  0  0  0  0  0  0  0  0  0  0  0
    5.4929   -1.9415    0.5208 C   0  0  0  0  0  0  0  0  0  0  0  0
    6.8717   -2.0890    0.5772 C   0  0  0  0  0  0  0  0  0  0  0  0
    7.7018   -0.9812    0.5753 C   0  0  0  0  0  0  0  0  0  0  0  0
    9.0616   -1.0149    0.6266 O   0  0  0  0  0  0  0  0  0  0  0  0
    9.6948   -2.2671    0.6954 C   0  0  0  0  0  0  0  0  0  0  0  0
    7.1254    0.3068    0.5093 C   0  0  0  0  0  0  0  0  0  0  0  0
    8.0157    1.3438    0.5028 O   0  0  0  0  0  0  0  0  0  0  0  0
    7.5121    2.6466    0.4061 C   0  0  0  0  0  0  0  0  0  0  0  0
    8.6565    3.6465    0.4603 C   0  0  0  0  0  0  0  0  0  0  0  0
    8.5938    4.7498   -0.0109 O   0  0  0  0  0  0  0  0  0  0  0  0
    9.7124    3.1861    1.1144 O   0  0  0  0  0  0  0  0  0  0  0  0
    5.7511    0.4379    0.4522 C   0  0  0  0  0  0  0  0  0  0  0  0
    2.6969   -0.7627    1.5218 C   0  0  0  0  0  0  0  0  0  0  0  0
    1.3717   -0.6348    1.6205 N   0  0  0  0  0  0  0  0  0  0  0  0
    0.9848   -0.9208    2.8652 C   0  0  0  0  0  0  0  0  0  0  0  0
   -0.3031   -0.9226    3.3547 C   0  0  0  0  0  0  0  0  0  0  0  0
   -1.4956   -0.6323    2.6956 C   0  0  0  0  0  0  0  0  0  0  0  0
   -2.7927   -0.6932    3.2672 C   0  0  0  0  0  0  0  0  0  0  0  0
   -3.6968   -0.3451    2.3017 C   0  0  0  0  0  0  0  0  0  0  0  0
   -2.9713   -0.0556    1.1184 C   0  0  0  0  0  0  0  0  0  0  0  0
   -1.6516   -0.2449    1.4001 N   0  0  0  0  0  0  0  0  0  0  0  0
    2.1513   -1.2749    3.7738 C   0  0  0  0  0  0  0  0  0  0  0  0
    3.3448   -1.1946    2.8271 C   0  0  0  0  0  0  0  0  0  0  0  0
   -2.1687    1.3649   -3.4270 C   0  0  0  0  0  0  0  0  0  0  0  0
   -3.3782    1.1203   -2.5302 C   0  0  0  0  0  0  0  0  0  0  0  0
   -5.7264   -0.4280   -0.9116 C   0  0  0  0  0  0  0  0  0  0  0  0
   -7.0994   -0.3015   -1.0012 C   0  0  0  0  0  0  0  0  0  0  0  0
   -7.9272   -1.1594   -1.6697 O   0  0  0  0  0  0  0  0  0  0  0  0
   -7.3535   -2.2432   -2.3441 C   0  0  0  0  0  0  0  0  0  0  0  0
   -8.4265   -3.0041   -3.1073 C   0  0  0  0  0  0  0  0  0  0  0  0
   -8.3127   -4.1537   -3.4372 O   0  0  0  0  0  0  0  0  0  0  0  0
   -9.4793   -2.2562   -3.4013 O   0  0  0  0  0  0  0  0  0  0  0  0
   -9.6702    1.8564    1.2051 H   0  0  0  0  0  0  0  0  0  0  0  0
  -10.8481    1.7028   -0.1217 H   0  0  0  0  0  0  0  0  0  0  0  0
   -9.4927    2.8481   -0.2706 H   0  0  0  0  0  0  0  0  0  0  0  0
   -7.4514    2.5296    0.8400 H   0  0  0  0  0  0  0  0  0  0  0  0
   -5.0247    2.2794    0.9774 H   0  0  0  0  0  0  0  0  0  0  0  0
    0.3974    1.3039   -4.0440 H   0  0  0  0  0  0  0  0  0  0  0  0
    2.9713    0.9464   -3.9712 H   0  0  0  0  0  0  0  0  0  0  0  0
    4.7205    0.1283   -2.1282 H   0  0  0  0  0  0  0  0  0  0  0  0
    0.8840    0.0570   -0.4195 H   0  0  0  0  0  0  0  0  0  0  0  0
    4.8647   -2.8193    0.5042 H   0  0  0  0  0  0  0  0  0  0  0  0
    7.2881   -3.0828    0.6167 H   0  0  0  0  0  0  0  0  0  0  0  0
    9.4064   -2.8171    1.5977 H   0  0  0  0  0  0  0  0  0  0  0  0
    9.4780   -2.8793   -0.1867 H   0  0  0  0  0  0  0  0  0  0  0  0
   10.7620   -2.0541    0.7309 H   0  0  0  0  0  0  0  0  0  0  0  0
    6.8414    2.8839    1.2481 H   0  0  0  0  0  0  0  0  0  0  0  0
    6.9600    2.8095   -0.5302 H   0  0  0  0  0  0  0  0  0  0  0  0
   10.4252    3.8454    1.1241 H   0  0  0  0  0  0  0  0  0  0  0  0
    5.2890    1.4111    0.3974 H   0  0  0  0  0  0  0  0  0  0  0  0
   -0.4123   -1.1949    4.3960 H   0  0  0  0  0  0  0  0  0  0  0  0
   -3.0004   -0.9717    4.2821 H   0  0  0  0  0  0  0  0  0  0  0  0
   -4.7638   -0.2942    2.3943 H   0  0  0  0  0  0  0  0  0  0  0  0
   -0.9151   -0.1112    0.7224 H   0  0  0  0  0  0  0  0  0  0  0  0
    2.2189   -0.5609    4.5963 H   0  0  0  0  0  0  0  0  0  0  0  0
    2.0166   -2.2692    4.2014 H   0  0  0  0  0  0  0  0  0  0  0  0
    3.8475   -2.1543    2.7087 H   0  0  0  0  0  0  0  0  0  0  0  0
    4.0933   -0.4651    3.1398 H   0  0  0  0  0  0  0  0  0  0  0  0
   -2.0595    2.4140   -3.7067 H   0  0  0  0  0  0  0  0  0  0  0  0
   -2.1935    0.7729   -4.3428 H   0  0  0  0  0  0  0  0  0  0  0  0
   -3.9635    2.0214   -2.3417 H   0  0  0  0  0  0  0  0  0  0  0  0
   -4.0525    0.3670   -2.9378 H   0  0  0  0  0  0  0  0  0  0  0  0
   -5.2175   -1.2603   -1.3724 H   0  0  0  0  0  0  0  0  0  0  0  0
   -6.8603   -2.9459   -1.6575 H   0  0  0  0  0  0  0  0  0  0  0  0
   -6.6114   -1.9100   -3.0879 H   0  0  0  0  0  0  0  0  0  0  0  0
  -10.1454   -2.7738   -3.8820 H   0  0  0  0  0  0  0  0  0  0  0  0
  1  2  1  0  0  0  0
  2  3  1  0  0  0  0
  3  4  2  0  0  0  0
  4  5  1  0  0  0  0
  5  6  2  0  0  0  0
  6  7  1  0  0  0  0
  7  8  1  0  0  0  0
  8  9  2  0  0  0  0
  9 10  1  0  0  0  0
 10 11  2  0  0  0  0
 11 12  1  0  0  0  0
 12 13  2  0  0  0  0
 13 14  1  0  0  0  0
 14 15  2  0  0  0  0
 15 16  1  0  0  0  0
 15 17  1  0  0  0  0
 17 18  1  0  0  0  0
 18 19  2  0  0  0  0
 19 20  1  0  0  0  0
 20 21  2  0  0  0  0
 21 22  1  0  0  0  0
 22 23  1  0  0  0  0
 21 24  1  0  0  0  0
 24 25  1  0  0  0  0
 25 26  1  0  0  0  0
 26 27  1  0  0  0  0
 27 28  2  0  0  0  0
 27 29  1  0  0  0  0
 24 30  2  0  0  0  0
 17 31  2  0  0  0  0
 31 32  1  0  0  0  0
 32 33  2  0  0  0  0
 33 34  1  0  0  0  0
 34 35  2  0  0  0  0
 35 36  1  0  0  0  0
 36 37  2  0  0  0  0
 37 38  1  0  0  0  0
 38 39  1  0  0  0  0
 33 40  1  0  0  0  0
 40 41  1  0  0  0  0
 10 42  1  0  0  0  0
 42 43  1  0  0  0  0
  6 44  1  0  0  0  0
 44 45  2  0  0  0  0
 45 46  1  0  0  0  0
 46 47  1  0  0  0  0
 47 48  1  0  0  0  0
 48 49  2  0  0  0  0
 48 50  1  0  0  0  0
 45  3  1  0  0  0  0
 38  7  2  0  0  0  0
 43  8  1  0  0  0  0
 16 12  1  0  0  0  0
 30 18  1  0  0  0  0
 41 31  1  0  0  0  0
 39 35  1  0  0  0  0
  1 51  1  0  0  0  0
  1 52  1  0  0  0  0
  1 53  1  0  0  0  0
  4 54  1  0  0  0  0
  5 55  1  0  0  0  0
 11 56  1  0  0  0  0
 13 57  1  0  0  0  0
 14 58  1  0  0  0  0
 16 59  1  0  0  0  0
 19 60  1  0  0  0  0
 20 61  1  0  0  0  0
 23 62  1  0  0  0  0
 23 63  1  0  0  0  0
 23 64  1  0  0  0  0
 26 65  1  0  0  0  0
 26 66  1  0  0  0  0
 29 67  1  0  0  0  0
 30 68  1  0  0  0  0
 34 69  1  0  0  0  0
 36 70  1  0  0  0  0
 37 71  1  0  0  0  0
 39 72  1  0  0  0  0
 40 73  1  0  0  0  0
 40 74  1  0  0  0  0
 41 75  1  0  0  0  0
 41 76  1  0  0  0  0
 42 77  1  0  0  0  0
 42 78  1  0  0  0  0
 43 79  1  0  0  0  0
 43 80  1  0  0  0  0
 44 81  1  0  0  0  0
 47 82  1  0  0  0  0
 47 83  1  0  0  0  0
 50 84  1  0  0  0  0
M  END
