
  xtb     03212212153D
 energy: -58.113755425005 gnorm: 0.000132463006 xtb: 6.4.1 (afa7bdf)
 36 39  0     0  0            999 V2000
    7.0168   -0.1765   -0.2047 C   0  0  0  0  0  0  0  0  0  0  0  0
    5.7303    0.1702   -0.6886 O   0  0  0  0  0  0  0  0  0  0  0  0
    4.7018   -0.0681    0.1488 C   0  0  0  0  0  0  0  0  0  0  0  0
    4.8437   -0.5468    1.2496 O   0  0  0  0  0  0  0  0  0  0  0  0
    3.4280    0.3279   -0.4577 C   0  0  0  0  0  0  0  0  0  0  0  0
    2.2794    0.1751    0.2171 C   0  0  0  0  0  0  0  0  0  0  0  0
    0.9603    0.5426   -0.2520 C   0  0  0  0  0  0  0  0  0  0  0  0
    0.8244    1.5699   -1.1917 C   0  0  0  0  0  0  0  0  0  0  0  0
   -0.4077    1.9880   -1.6361 C   0  0  0  0  0  0  0  0  0  0  0  0
   -1.5782    1.3896   -1.1622 C   0  0  0  0  0  0  0  0  0  0  0  0
   -2.8660    1.8093   -1.6006 C   0  0  0  0  0  0  0  0  0  0  0  0
   -3.9925    1.2209   -1.1355 C   0  0  0  0  0  0  0  0  0  0  0  0
   -3.9281    0.1551   -0.1919 C   0  0  0  0  0  0  0  0  0  0  0  0
   -5.0772   -0.4685    0.2979 C   0  0  0  0  0  0  0  0  0  0  0  0
   -4.9867   -1.5042    1.2096 C   0  0  0  0  0  0  0  0  0  0  0  0
   -3.7527   -1.9428    1.6522 C   0  0  0  0  0  0  0  0  0  0  0  0
   -2.5779   -1.3458    1.1910 C   0  0  0  0  0  0  0  0  0  0  0  0
   -1.2893   -1.7733    1.6178 C   0  0  0  0  0  0  0  0  0  0  0  0
   -0.1598   -1.1805    1.1626 C   0  0  0  0  0  0  0  0  0  0  0  0
   -0.2031   -0.0929    0.2413 C   0  0  0  0  0  0  0  0  0  0  0  0
   -1.4756    0.3374   -0.2181 C   0  0  0  0  0  0  0  0  0  0  0  0
   -2.6576   -0.2823    0.2598 C   0  0  0  0  0  0  0  0  0  0  0  0
    7.7252    0.1354   -0.9680 H   0  0  0  0  0  0  0  0  0  0  0  0
    7.2182    0.3347    0.7393 H   0  0  0  0  0  0  0  0  0  0  0  0
    7.0826   -1.2542   -0.0388 H   0  0  0  0  0  0  0  0  0  0  0  0
    3.4870    0.7155   -1.4622 H   0  0  0  0  0  0  0  0  0  0  0  0
    2.3609   -0.2555    1.2067 H   0  0  0  0  0  0  0  0  0  0  0  0
    1.7127    2.0670   -1.5503 H   0  0  0  0  0  0  0  0  0  0  0  0
   -0.4809    2.7929   -2.3533 H   0  0  0  0  0  0  0  0  0  0  0  0
   -2.9192    2.6151   -2.3191 H   0  0  0  0  0  0  0  0  0  0  0  0
   -4.9666    1.5458   -1.4728 H   0  0  0  0  0  0  0  0  0  0  0  0
   -6.0449   -0.1312   -0.0451 H   0  0  0  0  0  0  0  0  0  0  0  0
   -5.8870   -1.9749    1.5771 H   0  0  0  0  0  0  0  0  0  0  0  0
   -3.6868   -2.7550    2.3618 H   0  0  0  0  0  0  0  0  0  0  0  0
   -1.2313   -2.5943    2.3184 H   0  0  0  0  0  0  0  0  0  0  0  0
    0.7980   -1.5460    1.4976 H   0  0  0  0  0  0  0  0  0  0  0  0
  1  2  1  0  0  0  0
  2  3  1  0  0  0  0
  3  4  2  0  0  0  0
  3  5  1  0  0  0  0
  5  6  2  0  0  0  0
  6  7  1  0  0  0  0
  7  8  2  0  0  0  0
  8  9  1  0  0  0  0
  9 10  2  0  0  0  0
 10 11  1  0  0  0  0
 11 12  2  0  0  0  0
 12 13  1  0  0  0  0
 13 14  2  0  0  0  0
 14 15  1  0  0  0  0
 15 16  2  0  0  0  0
 16 17  1  0  0  0  0
 17 18  2  0  0  0  0
 18 19  1  0  0  0  0
 19 20  2  0  0  0  0
 20 21  1  0  0  0  0
 21 22  2  0  0  0  0
 20  7  1  0  0  0  0
 21 10  1  0  0  0  0
 22 13  1  0  0  0  0
 22 17  1  0  0  0  0
  1 23  1  0  0  0  0
  1 24  1  0  0  0  0
  1 25  1  0  0  0  0
  5 26  1  0  0  0  0
  6 27  1  0  0  0  0
  8 28  1  0  0  0  0
  9 29  1  0  0  0  0
 11 30  1  0  0  0  0
 12 31  1  0  0  0  0
 14 32  1  0  0  0  0
 15 33  1  0  0  0  0
 16 34  1  0  0  0  0
 18 35  1  0  0  0  0
 19 36  1  0  0  0  0
M  END
