
  xtb     03212212153D
 energy: -115.505899348370 gnorm: 0.000076888169 xtb: 6.4.1 (afa7bdf)
 75 84  0     0  0            999 V2000
   -6.7464    1.3279   -2.9656 C   0  0  0  0  0  0  0  0  0  0  0  0
   -5.3913    1.5373   -2.7966 C   0  0  0  0  0  0  0  0  0  0  0  0
   -4.7694    1.1781   -1.6140 C   0  0  0  0  0  0  0  0  0  0  0  0
   -5.4804    0.6027   -0.5589 C   0  0  0  0  0  0  0  0  0  0  0  0
   -6.8568    0.4321   -0.7335 C   0  0  0  0  0  0  0  0  0  0  0  0
   -7.4732    0.7779   -1.9244 C   0  0  0  0  0  0  0  0  0  0  0  0
   -7.9191   -0.1641    0.5524 S   0  0  0  0  0  0  0  0  0  0  0  0
   -6.7438   -0.8040    1.7120 C   0  0  0  0  0  0  0  0  0  0  0  0
   -7.2535   -1.5802    2.7393 C   0  0  0  0  0  0  0  0  0  0  0  0
   -6.4222   -2.0944    3.7187 C   0  0  0  0  0  0  0  0  0  0  0  0
   -5.0671   -1.8332    3.6508 C   0  0  0  0  0  0  0  0  0  0  0  0
   -4.5527   -1.0707    2.6173 C   0  0  0  0  0  0  0  0  0  0  0  0
   -5.3762   -0.5306    1.6273 C   0  0  0  0  0  0  0  0  0  0  0  0
   -4.8185    0.2403    0.6108 N   0  0  0  0  0  0  0  0  0  0  0  0
   -3.4254    0.5278    0.7025 C   0  0  0  0  0  0  0  0  0  0  0  0
   -3.0077    1.6151    1.4607 C   0  0  0  0  0  0  0  0  0  0  0  0
   -1.6611    1.9168    1.5761 C   0  0  0  0  0  0  0  0  0  0  0  0
   -0.7415    1.1192    0.9158 C   0  0  0  0  0  0  0  0  0  0  0  0
   -1.1646    0.0255    0.1444 C   0  0  0  0  0  0  0  0  0  0  0  0
   -2.5028   -0.2797    0.0394 C   0  0  0  0  0  0  0  0  0  0  0  0
    0.0102   -0.6855   -0.4779 C   0  0  0  0  0  0  0  0  0  0  0  0
   -0.0634   -0.7153   -2.0253 C   0  0  0  0  0  0  0  0  0  0  0  0
    0.3187   -2.1374   -2.4301 C   0  0  0  0  0  0  0  0  0  0  0  0
   -0.2433   -2.9842   -1.2943 C   0  0  0  0  0  0  0  0  0  0  0  0
    0.1060   -2.1715   -0.0494 C   0  0  0  0  0  0  0  0  0  0  0  0
    1.1628    0.1398    0.0354 C   0  0  0  0  0  0  0  0  0  0  0  0
    2.5076   -0.0244   -0.2077 C   0  0  0  0  0  0  0  0  0  0  0  0
    3.4059    0.8623    0.3838 C   0  0  0  0  0  0  0  0  0  0  0  0
    4.8052    0.7161    0.1549 N   0  0  0  0  0  0  0  0  0  0  0  0
    5.4753   -0.2851    0.8523 C   0  0  0  0  0  0  0  0  0  0  0  0
    4.7677   -1.1372    1.7028 C   0  0  0  0  0  0  0  0  0  0  0  0
    5.3979   -2.1523    2.4003 C   0  0  0  0  0  0  0  0  0  0  0  0
    6.7582   -2.3528    2.2664 C   0  0  0  0  0  0  0  0  0  0  0  0
    7.4813   -1.5063    1.4446 C   0  0  0  0  0  0  0  0  0  0  0  0
    6.8563   -0.4792    0.7575 C   0  0  0  0  0  0  0  0  0  0  0  0
    7.9126    0.5930   -0.1764 S   0  0  0  0  0  0  0  0  0  0  0  0
    6.7339    1.4946   -1.1426 C   0  0  0  0  0  0  0  0  0  0  0  0
    7.2439    2.2576   -2.1797 C   0  0  0  0  0  0  0  0  0  0  0  0
    6.4094    3.0296   -2.9685 C   0  0  0  0  0  0  0  0  0  0  0  0
    5.0511    3.0192   -2.7151 C   0  0  0  0  0  0  0  0  0  0  0  0
    4.5368    2.2462   -1.6895 C   0  0  0  0  0  0  0  0  0  0  0  0
    5.3631    1.4712   -0.8731 C   0  0  0  0  0  0  0  0  0  0  0  0
    2.9577    1.8964    1.1969 C   0  0  0  0  0  0  0  0  0  0  0  0
    1.6043    2.0696    1.4333 C   0  0  0  0  0  0  0  0  0  0  0  0
    0.7087    1.1885    0.8504 C   0  0  0  0  0  0  0  0  0  0  0  0
   -7.2385    1.5977   -3.8866 H   0  0  0  0  0  0  0  0  0  0  0  0
   -4.8042    1.9830   -3.5853 H   0  0  0  0  0  0  0  0  0  0  0  0
   -3.7119    1.3601   -1.5032 H   0  0  0  0  0  0  0  0  0  0  0  0
   -8.5374    0.6220   -2.0161 H   0  0  0  0  0  0  0  0  0  0  0  0
   -8.3167   -1.7653    2.7645 H   0  0  0  0  0  0  0  0  0  0  0  0
   -6.8323   -2.6888    4.5198 H   0  0  0  0  0  0  0  0  0  0  0  0
   -4.3964   -2.2237    4.4011 H   0  0  0  0  0  0  0  0  0  0  0  0
   -3.4906   -0.8849    2.5803 H   0  0  0  0  0  0  0  0  0  0  0  0
   -3.7498    2.2181    1.9623 H   0  0  0  0  0  0  0  0  0  0  0  0
   -1.3396    2.7601    2.1677 H   0  0  0  0  0  0  0  0  0  0  0  0
   -2.8497   -1.1219   -0.5413 H   0  0  0  0  0  0  0  0  0  0  0  0
   -1.0851   -0.5012   -2.3423 H   0  0  0  0  0  0  0  0  0  0  0  0
    0.5911    0.0350   -2.4677 H   0  0  0  0  0  0  0  0  0  0  0  0
    1.4040   -2.2421   -2.4691 H   0  0  0  0  0  0  0  0  0  0  0  0
   -0.0868   -2.4104   -3.4032 H   0  0  0  0  0  0  0  0  0  0  0  0
    0.1811   -3.9866   -1.2627 H   0  0  0  0  0  0  0  0  0  0  0  0
   -1.3257   -3.0729   -1.3981 H   0  0  0  0  0  0  0  0  0  0  0  0
    1.1277   -2.3920    0.2630 H   0  0  0  0  0  0  0  0  0  0  0  0
   -0.5565   -2.3857    0.7887 H   0  0  0  0  0  0  0  0  0  0  0  0
    2.8781   -0.8189   -0.8390 H   0  0  0  0  0  0  0  0  0  0  0  0
    3.7060   -0.9955    1.8311 H   0  0  0  0  0  0  0  0  0  0  0  0
    4.8130   -2.7856    3.0502 H   0  0  0  0  0  0  0  0  0  0  0  0
    7.2569   -3.1461    2.8003 H   0  0  0  0  0  0  0  0  0  0  0  0
    8.5490   -1.6221    1.3355 H   0  0  0  0  0  0  0  0  0  0  0  0
    8.3096    2.2447   -2.3512 H   0  0  0  0  0  0  0  0  0  0  0  0
    6.8195    3.6278   -3.7667 H   0  0  0  0  0  0  0  0  0  0  0  0
    4.3780    3.6113   -3.3165 H   0  0  0  0  0  0  0  0  0  0  0  0
    3.4723    2.2482   -1.5138 H   0  0  0  0  0  0  0  0  0  0  0  0
    3.6815    2.5655    1.6377 H   0  0  0  0  0  0  0  0  0  0  0  0
    1.2590    2.8751    2.0630 H   0  0  0  0  0  0  0  0  0  0  0  0
  1  2  2  0  0  0  0
  2  3  1  0  0  0  0
  3  4  2  0  0  0  0
  4  5  1  0  0  0  0
  5  6  2  0  0  0  0
  5  7  1  0  0  0  0
  7  8  1  0  0  0  0
  8  9  2  0  0  0  0
  9 10  1  0  0  0  0
 10 11  2  0  0  0  0
 11 12  1  0  0  0  0
 12 13  2  0  0  0  0
 13 14  1  0  0  0  0
 14 15  1  0  0  0  0
 15 16  2  0  0  0  0
 16 17  1  0  0  0  0
 17 18  2  0  0  0  0
 18 19  1  0  0  0  0
 19 20  2  0  0  0  0
 19 21  1  0  0  0  0
 21 22  1  0  0  0  0
 22 23  1  0  0  0  0
 23 24  1  0  0  0  0
 24 25  1  0  0  0  0
 21 26  1  0  0  0  0
 26 27  2  0  0  0  0
 27 28  1  0  0  0  0
 28 29  1  0  0  0  0
 29 30  1  0  0  0  0
 30 31  2  0  0  0  0
 31 32  1  0  0  0  0
 32 33  2  0  0  0  0
 33 34  1  0  0  0  0
 34 35  2  0  0  0  0
 35 36  1  0  0  0  0
 36 37  1  0  0  0  0
 37 38  2  0  0  0  0
 38 39  1  0  0  0  0
 39 40  2  0  0  0  0
 40 41  1  0  0  0  0
 41 42  2  0  0  0  0
 28 43  2  0  0  0  0
 43 44  1  0  0  0  0
 44 45  2  0  0  0  0
  6  1  1  0  0  0  0
 13  8  1  0  0  0  0
 20 15  1  0  0  0  0
 25 21  1  0  0  0  0
 45 26  1  0  0  0  0
 14  4  1  0  0  0  0
 45 18  1  0  0  0  0
 42 29  1  0  0  0  0
 35 30  1  0  0  0  0
 42 37  1  0  0  0  0
  1 46  1  0  0  0  0
  2 47  1  0  0  0  0
  3 48  1  0  0  0  0
  6 49  1  0  0  0  0
  9 50  1  0  0  0  0
 10 51  1  0  0  0  0
 11 52  1  0  0  0  0
 12 53  1  0  0  0  0
 16 54  1  0  0  0  0
 17 55  1  0  0  0  0
 20 56  1  0  0  0  0
 22 57  1  0  0  0  0
 22 58  1  0  0  0  0
 23 59  1  0  0  0  0
 23 60  1  0  0  0  0
 24 61  1  0  0  0  0
 24 62  1  0  0  0  0
 25 63  1  0  0  0  0
 25 64  1  0  0  0  0
 27 65  1  0  0  0  0
 31 66  1  0  0  0  0
 32 67  1  0  0  0  0
 33 68  1  0  0  0  0
 34 69  1  0  0  0  0
 38 70  1  0  0  0  0
 39 71  1  0  0  0  0
 40 72  1  0  0  0  0
 41 73  1  0  0  0  0
 43 74  1  0  0  0  0
 44 75  1  0  0  0  0
M  END
