
  xtb     03212211093D
 energy: -91.878623247663 gnorm: 0.000161011185 xtb: 6.4.1 (afa7bdf)
 52 55  0     0  0            999 V2000
    1.5175    4.3407    1.2031 C   0  0  0  0  0  0  0  0  0  0  0  0
    0.4640    4.0835    0.1347 C   0  0  0  0  0  0  0  0  0  0  0  0
   -0.0103    2.7385    0.1786 O   0  0  0  0  0  0  0  0  0  0  0  0
    0.7249    1.8144   -0.4547 C   0  0  0  0  0  0  0  0  0  0  0  0
    1.7765    2.0434   -1.0006 O   0  0  0  0  0  0  0  0  0  0  0  0
    0.0765    0.5009   -0.3828 C   0  0  0  0  0  0  0  0  0  0  0  0
    0.6580   -0.7891   -0.5343 C   0  0  0  0  0  0  0  0  0  0  0  0
    2.0519   -1.1108   -0.8032 C   0  0  0  0  0  0  0  0  0  0  0  0
    3.0771   -0.5039   -0.1627 C   0  0  0  0  0  0  0  0  0  0  0  0
    4.4303   -0.8345   -0.4792 C   0  0  0  0  0  0  0  0  0  0  0  0
    5.5371   -0.2386    0.1355 C   0  0  0  0  0  0  0  0  0  0  0  0
    6.8135   -0.6072   -0.2217 C   0  0  0  0  0  0  0  0  0  0  0  0
    7.0134   -1.5806   -1.1977 C   0  0  0  0  0  0  0  0  0  0  0  0
    5.9398   -2.1842   -1.8176 C   0  0  0  0  0  0  0  0  0  0  0  0
    4.6446   -1.8127   -1.4628 C   0  0  0  0  0  0  0  0  0  0  0  0
    3.6152   -2.4220   -2.0918 O   0  0  0  0  0  0  0  0  0  0  0  0
    2.3049   -2.1270   -1.8363 C   0  0  0  0  0  0  0  0  0  0  0  0
    1.4644   -2.7014   -2.4752 O   0  0  0  0  0  0  0  0  0  0  0  0
   -0.2673   -1.7187   -0.4037 N   0  0  0  0  0  0  0  0  0  0  0  0
   -1.4209   -1.0990   -0.1889 N   0  0  0  0  0  0  0  0  0  0  0  0
   -2.6061   -1.8408   -0.0664 C   0  0  0  0  0  0  0  0  0  0  0  0
   -3.8099   -1.3431   -0.5486 C   0  0  0  0  0  0  0  0  0  0  0  0
   -4.9629   -2.0936   -0.4034 C   0  0  0  0  0  0  0  0  0  0  0  0
   -4.9150   -3.3383    0.2023 C   0  0  0  0  0  0  0  0  0  0  0  0
   -3.7057   -3.8430    0.6529 C   0  0  0  0  0  0  0  0  0  0  0  0
   -2.5484   -3.0993    0.5207 C   0  0  0  0  0  0  0  0  0  0  0  0
   -1.2733    0.2472   -0.1667 C   0  0  0  0  0  0  0  0  0  0  0  0
   -2.3648    1.2103    0.1262 C   0  0  0  0  0  0  0  0  0  0  0  0
   -2.7241    2.0938   -0.6039 O   0  0  0  0  0  0  0  0  0  0  0  0
   -2.8710    0.9601    1.3371 O   0  0  0  0  0  0  0  0  0  0  0  0
   -3.9206    1.8170    1.7933 C   0  0  0  0  0  0  0  0  0  0  0  0
   -5.2777    1.3679    1.2723 C   0  0  0  0  0  0  0  0  0  0  0  0
    1.1282    4.0854    2.1861 H   0  0  0  0  0  0  0  0  0  0  0  0
    2.4013    3.7396    1.0033 H   0  0  0  0  0  0  0  0  0  0  0  0
    1.7973    5.3902    1.1927 H   0  0  0  0  0  0  0  0  0  0  0  0
   -0.4238    4.6982    0.2956 H   0  0  0  0  0  0  0  0  0  0  0  0
    0.8784    4.2798   -0.8595 H   0  0  0  0  0  0  0  0  0  0  0  0
    2.8915    0.2363    0.6017 H   0  0  0  0  0  0  0  0  0  0  0  0
    5.3692    0.5168    0.8883 H   0  0  0  0  0  0  0  0  0  0  0  0
    7.6640   -0.1421    0.2530 H   0  0  0  0  0  0  0  0  0  0  0  0
    8.0175   -1.8647   -1.4733 H   0  0  0  0  0  0  0  0  0  0  0  0
    6.0746   -2.9381   -2.5765 H   0  0  0  0  0  0  0  0  0  0  0  0
   -3.8405   -0.3907   -1.0549 H   0  0  0  0  0  0  0  0  0  0  0  0
   -5.9000   -1.7080   -0.7761 H   0  0  0  0  0  0  0  0  0  0  0  0
   -5.8182   -3.9193    0.3112 H   0  0  0  0  0  0  0  0  0  0  0  0
   -3.6644   -4.8196    1.1107 H   0  0  0  0  0  0  0  0  0  0  0  0
   -1.5949   -3.4747    0.8556 H   0  0  0  0  0  0  0  0  0  0  0  0
   -3.8771    1.7553    2.8823 H   0  0  0  0  0  0  0  0  0  0  0  0
   -3.7063    2.8397    1.4667 H   0  0  0  0  0  0  0  0  0  0  0  0
   -5.3218    1.4841    0.1925 H   0  0  0  0  0  0  0  0  0  0  0  0
   -6.0565    1.9776    1.7212 H   0  0  0  0  0  0  0  0  0  0  0  0
   -5.4502    0.3242    1.5245 H   0  0  0  0  0  0  0  0  0  0  0  0
  1  2  1  0  0  0  0
  2  3  1  0  0  0  0
  3  4  1  0  0  0  0
  4  5  2  0  0  0  0
  4  6  1  0  0  0  0
  6  7  1  0  0  0  0
  7  8  1  0  0  0  0
  8  9  2  0  0  0  0
  9 10  1  0  0  0  0
 10 11  2  0  0  0  0
 11 12  1  0  0  0  0
 12 13  2  0  0  0  0
 13 14  1  0  0  0  0
 14 15  2  0  0  0  0
 15 16  1  0  0  0  0
 16 17  1  0  0  0  0
 17 18  2  0  0  0  0
  7 19  2  0  0  0  0
 19 20  1  0  0  0  0
 20 21  1  0  0  0  0
 21 22  2  0  0  0  0
 22 23  1  0  0  0  0
 23 24  2  0  0  0  0
 24 25  1  0  0  0  0
 25 26  2  0  0  0  0
 20 27  1  0  0  0  0
 27 28  1  0  0  0  0
 28 29  2  0  0  0  0
 28 30  1  0  0  0  0
 30 31  1  0  0  0  0
 31 32  1  0  0  0  0
 27  6  2  0  0  0  0
 17  8  1  0  0  0  0
 26 21  1  0  0  0  0
 15 10  1  0  0  0  0
  1 33  1  0  0  0  0
  1 34  1  0  0  0  0
  1 35  1  0  0  0  0
  2 36  1  0  0  0  0
  2 37  1  0  0  0  0
  9 38  1  0  0  0  0
 11 39  1  0  0  0  0
 12 40  1  0  0  0  0
 13 41  1  0  0  0  0
 14 42  1  0  0  0  0
 22 43  1  0  0  0  0
 23 44  1  0  0  0  0
 24 45  1  0  0  0  0
 25 46  1  0  0  0  0
 26 47  1  0  0  0  0
 31 48  1  0  0  0  0
 31 49  1  0  0  0  0
 32 50  1  0  0  0  0
 32 51  1  0  0  0  0
 32 52  1  0  0  0  0
M  END
