
  xtb     03212212003D
 energy: -109.232084207491 gnorm: 0.000342256275 xtb: 6.4.1 (afa7bdf)
 74 78  0     0  0            999 V2000
   -3.1051    3.9519    0.5319 C   0  0  0  0  0  0  0  0  0  0  0  0
   -2.6125    2.5456    0.4452 C   0  0  0  0  0  0  0  0  0  0  0  0
   -3.2962    1.5532   -0.1754 C   0  0  0  0  0  0  0  0  0  0  0  0
   -4.5563    1.7373   -0.7841 C   0  0  0  0  0  0  0  0  0  0  0  0
   -5.6366    1.8551   -1.3121 C   0  0  0  0  0  0  0  0  0  0  0  0
   -6.8972    2.0070   -1.9256 C   0  0  0  0  0  0  0  0  0  0  0  0
   -7.4533    0.9526   -2.6535 C   0  0  0  0  0  0  0  0  0  0  0  0
   -8.6871    1.1037   -3.2547 C   0  0  0  0  0  0  0  0  0  0  0  0
   -9.3794    2.2992   -3.1393 C   0  0  0  0  0  0  0  0  0  0  0  0
   -8.8326    3.3486   -2.4173 C   0  0  0  0  0  0  0  0  0  0  0  0
   -7.5991    3.2090   -1.8122 C   0  0  0  0  0  0  0  0  0  0  0  0
   -2.7194    0.2651   -0.2890 C   0  0  0  0  0  0  0  0  0  0  0  0
   -2.1516   -0.7941   -0.4040 C   0  0  0  0  0  0  0  0  0  0  0  0
   -1.4187   -1.9942   -0.5074 C   0  0  0  0  0  0  0  0  0  0  0  0
   -1.7194   -2.9426   -1.4850 C   0  0  0  0  0  0  0  0  0  0  0  0
   -0.9540   -4.0869   -1.5922 C   0  0  0  0  0  0  0  0  0  0  0  0
    0.1109   -4.2990   -0.7311 C   0  0  0  0  0  0  0  0  0  0  0  0
    0.4092   -3.3625    0.2461 C   0  0  0  0  0  0  0  0  0  0  0  0
   -0.3484   -2.2148    0.3623 C   0  0  0  0  0  0  0  0  0  0  0  0
   -1.3036    2.2282    1.0458 C   0  0  0  0  0  0  0  0  0  0  0  0
   -0.1280    2.7417    0.5083 C   0  0  0  0  0  0  0  0  0  0  0  0
    1.0991    2.3365    0.9937 C   0  0  0  0  0  0  0  0  0  0  0  0
    1.1818    1.4400    2.0553 C   0  0  0  0  0  0  0  0  0  0  0  0
    2.4939    0.9412    2.5054 C   0  0  0  0  0  0  0  0  0  0  0  0
    2.9351    1.2724    3.8924 C   0  0  0  0  0  0  0  0  0  0  0  0
    3.2305    0.1901    1.6504 C   0  0  0  0  0  0  0  0  0  0  0  0
    4.4990   -0.3382    1.9733 C   0  0  0  0  0  0  0  0  0  0  0  0
    5.5883   -0.8040    2.2106 C   0  0  0  0  0  0  0  0  0  0  0  0
    6.8598   -1.3403    2.5006 C   0  0  0  0  0  0  0  0  0  0  0  0
    7.5181   -2.1311    1.5562 C   0  0  0  0  0  0  0  0  0  0  0  0
    8.7635   -2.6547    1.8415 C   0  0  0  0  0  0  0  0  0  0  0  0
    9.3660   -2.3995    3.0636 C   0  0  0  0  0  0  0  0  0  0  0  0
    8.7171   -1.6154    4.0045 C   0  0  0  0  0  0  0  0  0  0  0  0
    7.4715   -1.0863    3.7301 C   0  0  0  0  0  0  0  0  0  0  0  0
    2.7086   -0.1537    0.3801 C   0  0  0  0  0  0  0  0  0  0  0  0
    2.1919   -0.4664   -0.6655 C   0  0  0  0  0  0  0  0  0  0  0  0
    1.5180   -0.7962   -1.8592 C   0  0  0  0  0  0  0  0  0  0  0  0
    0.4243   -0.0251   -2.2590 C   0  0  0  0  0  0  0  0  0  0  0  0
   -0.2740   -0.3593   -3.4014 C   0  0  0  0  0  0  0  0  0  0  0  0
    0.1072   -1.4580   -4.1556 C   0  0  0  0  0  0  0  0  0  0  0  0
    1.1951   -2.2224   -3.7654 C   0  0  0  0  0  0  0  0  0  0  0  0
    1.9016   -1.8975   -2.6243 C   0  0  0  0  0  0  0  0  0  0  0  0
    0.0048    0.9786    2.6359 C   0  0  0  0  0  0  0  0  0  0  0  0
   -1.2215    1.3519    2.1239 C   0  0  0  0  0  0  0  0  0  0  0  0
   -4.0379    4.0715   -0.0146 H   0  0  0  0  0  0  0  0  0  0  0  0
   -2.3608    4.6382    0.1273 H   0  0  0  0  0  0  0  0  0  0  0  0
   -3.2666    4.2263    1.5757 H   0  0  0  0  0  0  0  0  0  0  0  0
   -6.9079    0.0238   -2.7386 H   0  0  0  0  0  0  0  0  0  0  0  0
   -9.1137    0.2856   -3.8171 H   0  0  0  0  0  0  0  0  0  0  0  0
  -10.3442    2.4128   -3.6113 H   0  0  0  0  0  0  0  0  0  0  0  0
   -9.3722    4.2804   -2.3267 H   0  0  0  0  0  0  0  0  0  0  0  0
   -7.1691    4.0244   -1.2478 H   0  0  0  0  0  0  0  0  0  0  0  0
   -2.5460   -2.7676   -2.1583 H   0  0  0  0  0  0  0  0  0  0  0  0
   -1.1853   -4.8172   -2.3542 H   0  0  0  0  0  0  0  0  0  0  0  0
    0.7091   -5.1938   -0.8227 H   0  0  0  0  0  0  0  0  0  0  0  0
    1.2424   -3.5235    0.9147 H   0  0  0  0  0  0  0  0  0  0  0  0
   -0.1150   -1.4718    1.1109 H   0  0  0  0  0  0  0  0  0  0  0  0
   -0.1747    3.4282   -0.3256 H   0  0  0  0  0  0  0  0  0  0  0  0
    2.0072    2.7086    0.5418 H   0  0  0  0  0  0  0  0  0  0  0  0
    2.1783    0.9638    4.6139 H   0  0  0  0  0  0  0  0  0  0  0  0
    3.0610    2.3515    3.9953 H   0  0  0  0  0  0  0  0  0  0  0  0
    3.8768    0.7818    4.1283 H   0  0  0  0  0  0  0  0  0  0  0  0
    7.0424   -2.3250    0.6057 H   0  0  0  0  0  0  0  0  0  0  0  0
    9.2696   -3.2655    1.1078 H   0  0  0  0  0  0  0  0  0  0  0  0
   10.3403   -2.8110    3.2824 H   0  0  0  0  0  0  0  0  0  0  0  0
    9.1866   -1.4164    4.9572 H   0  0  0  0  0  0  0  0  0  0  0  0
    6.9621   -0.4741    4.4607 H   0  0  0  0  0  0  0  0  0  0  0  0
    0.1265    0.8207   -1.6565 H   0  0  0  0  0  0  0  0  0  0  0  0
   -1.1254    0.2345   -3.7009 H   0  0  0  0  0  0  0  0  0  0  0  0
   -0.4446   -1.7196   -5.0466 H   0  0  0  0  0  0  0  0  0  0  0  0
    1.4909   -3.0794   -4.3534 H   0  0  0  0  0  0  0  0  0  0  0  0
    2.7461   -2.4939   -2.3105 H   0  0  0  0  0  0  0  0  0  0  0  0
    0.0512    0.2860    3.4648 H   0  0  0  0  0  0  0  0  0  0  0  0
   -2.1293    0.9540    2.5543 H   0  0  0  0  0  0  0  0  0  0  0  0
  1  2  1  0  0  0  0
  2  3  2  0  0  0  0
  3  4  1  0  0  0  0
  4  5  3  0  0  0  0
  5  6  1  0  0  0  0
  6  7  2  0  0  0  0
  7  8  1  0  0  0  0
  8  9  2  0  0  0  0
  9 10  1  0  0  0  0
 10 11  2  0  0  0  0
  3 12  1  0  0  0  0
 12 13  3  0  0  0  0
 13 14  1  0  0  0  0
 14 15  2  0  0  0  0
 15 16  1  0  0  0  0
 16 17  2  0  0  0  0
 17 18  1  0  0  0  0
 18 19  2  0  0  0  0
  2 20  1  0  0  0  0
 20 21  2  0  0  0  0
 21 22  1  0  0  0  0
 22 23  2  0  0  0  0
 23 24  1  0  0  0  0
 24 25  1  0  0  0  0
 24 26  2  0  0  0  0
 26 27  1  0  0  0  0
 27 28  3  0  0  0  0
 28 29  1  0  0  0  0
 29 30  2  0  0  0  0
 30 31  1  0  0  0  0
 31 32  2  0  0  0  0
 32 33  1  0  0  0  0
 33 34  2  0  0  0  0
 26 35  1  0  0  0  0
 35 36  3  0  0  0  0
 36 37  1  0  0  0  0
 37 38  2  0  0  0  0
 38 39  1  0  0  0  0
 39 40  2  0  0  0  0
 40 41  1  0  0  0  0
 41 42  2  0  0  0  0
 23 43  1  0  0  0  0
 43 44  2  0  0  0  0
 11  6  1  0  0  0  0
 19 14  1  0  0  0  0
 44 20  1  0  0  0  0
 34 29  1  0  0  0  0
 42 37  1  0  0  0  0
  1 45  1  0  0  0  0
  1 46  1  0  0  0  0
  1 47  1  0  0  0  0
  7 48  1  0  0  0  0
  8 49  1  0  0  0  0
  9 50  1  0  0  0  0
 10 51  1  0  0  0  0
 11 52  1  0  0  0  0
 15 53  1  0  0  0  0
 16 54  1  0  0  0  0
 17 55  1  0  0  0  0
 18 56  1  0  0  0  0
 19 57  1  0  0  0  0
 21 58  1  0  0  0  0
 22 59  1  0  0  0  0
 25 60  1  0  0  0  0
 25 61  1  0  0  0  0
 25 62  1  0  0  0  0
 30 63  1  0  0  0  0
 31 64  1  0  0  0  0
 32 65  1  0  0  0  0
 33 66  1  0  0  0  0
 34 67  1  0  0  0  0
 38 68  1  0  0  0  0
 39 69  1  0  0  0  0
 40 70  1  0  0  0  0
 41 71  1  0  0  0  0
 42 72  1  0  0  0  0
 43 73  1  0  0  0  0
 44 74  1  0  0  0  0
M  END
