
  xtb     03212210423D
 energy: -100.487608085843 gnorm: 0.000329715671 xtb: 6.4.1 (afa7bdf)
 59 64  0     0  0            999 V2000
   -5.4611    0.1468    2.3240 N   0  0  0  0  0  0  0  0  0  0  0  0
   -5.3494   -0.0446    1.1991 C   0  0  0  0  0  0  0  0  0  0  0  0
   -5.1597   -0.3486   -0.4418 S   0  0  0  0  0  0  0  0  0  0  0  0
   -3.4010   -0.1158   -0.4870 C   0  0  0  0  0  0  0  0  0  0  0  0
   -2.7817    0.8265   -1.2832 C   0  0  0  0  0  0  0  0  0  0  0  0
   -1.4146    0.7566   -0.9937 C   0  0  0  0  0  0  0  0  0  0  0  0
   -0.3485    1.4426   -1.5855 C   0  0  0  0  0  0  0  0  0  0  0  0
   -0.6072    2.4310   -2.6431 C   0  0  0  0  0  0  0  0  0  0  0  0
   -1.3345    2.0896   -3.7802 C   0  0  0  0  0  0  0  0  0  0  0  0
   -1.5711    3.0293   -4.7669 C   0  0  0  0  0  0  0  0  0  0  0  0
   -1.0903    4.3208   -4.6294 C   0  0  0  0  0  0  0  0  0  0  0  0
   -0.3642    4.6677   -3.5020 C   0  0  0  0  0  0  0  0  0  0  0  0
   -0.1191    3.7294   -2.5166 C   0  0  0  0  0  0  0  0  0  0  0  0
    0.9575    1.1512   -1.2200 C   0  0  0  0  0  0  0  0  0  0  0  0
    2.1602    1.5950   -1.8106 C   0  0  0  0  0  0  0  0  0  0  0  0
    3.1851    0.9422   -1.1828 C   0  0  0  0  0  0  0  0  0  0  0  0
    2.6166    0.1069   -0.1840 C   0  0  0  0  0  0  0  0  0  0  0  0
    3.3042   -0.7481    0.6173 N   0  0  0  0  0  0  0  0  0  0  0  0
    4.7393   -0.8631    0.4517 C   0  0  0  0  0  0  0  0  0  0  0  0
    5.4500    0.1062    1.4374 C   0  0  0  0  0  0  0  0  0  0  0  0
    4.5173    0.9782    2.0239 O   0  0  0  0  0  0  0  0  0  0  0  0
    3.5470    0.2949    2.7900 C   0  0  0  0  0  0  0  0  0  0  0  0
    2.9882   -0.9245    2.0205 C   0  0  0  0  0  0  0  0  0  0  0  0
    1.2710    0.2337   -0.2275 N   0  0  0  0  0  0  0  0  0  0  0  0
    0.1734   -0.4196    0.6347 B   0  0  0  0  0  4  0  0  0  0  0  0
    0.4093   -1.7781    0.7640 F   0  0  0  0  0  0  0  0  0  0  0  0
    0.1894    0.1778    1.9015 F   0  0  0  0  0  0  0  0  0  0  0  0
   -1.2149   -0.1926   -0.0043 N   0  0  0  0  0  4  0  0  0  0  0  0
   -2.4102   -0.7487    0.3113 C   0  0  0  0  0  0  0  0  0  0  0  0
   -2.6110   -1.7546    1.1907 N   0  0  0  0  0  0  0  0  0  0  0  0
   -2.0369   -1.8525    2.5166 C   0  0  0  0  0  0  0  0  0  0  0  0
   -1.4992   -3.2661    2.7453 C   0  0  0  0  0  0  0  0  0  0  0  0
   -2.5089   -4.2324    2.5390 O   0  0  0  0  0  0  0  0  0  0  0  0
   -3.0260   -4.1333    1.2379 C   0  0  0  0  0  0  0  0  0  0  0  0
   -3.6413   -2.7497    0.9796 C   0  0  0  0  0  0  0  0  0  0  0  0
   -3.2561    1.4907   -1.9773 H   0  0  0  0  0  0  0  0  0  0  0  0
   -1.6919    1.0772   -3.8966 H   0  0  0  0  0  0  0  0  0  0  0  0
   -2.1318    2.7522   -5.6475 H   0  0  0  0  0  0  0  0  0  0  0  0
   -1.2794    5.0539   -5.3992 H   0  0  0  0  0  0  0  0  0  0  0  0
    0.0120    5.6738   -3.3897 H   0  0  0  0  0  0  0  0  0  0  0  0
    0.4359    4.0002   -1.6308 H   0  0  0  0  0  0  0  0  0  0  0  0
    2.2327    2.3030   -2.6122 H   0  0  0  0  0  0  0  0  0  0  0  0
    4.2291    1.0768   -1.3790 H   0  0  0  0  0  0  0  0  0  0  0  0
    5.0098   -1.8991    0.6802 H   0  0  0  0  0  0  0  0  0  0  0  0
    5.0157   -0.6650   -0.5808 H   0  0  0  0  0  0  0  0  0  0  0  0
    6.1658    0.7459    0.9191 H   0  0  0  0  0  0  0  0  0  0  0  0
    5.9814   -0.4605    2.2163 H   0  0  0  0  0  0  0  0  0  0  0  0
    3.9768   -0.0263    3.7505 H   0  0  0  0  0  0  0  0  0  0  0  0
    2.7591    1.0265    2.9743 H   0  0  0  0  0  0  0  0  0  0  0  0
    1.9253   -1.0199    2.1879 H   0  0  0  0  0  0  0  0  0  0  0  0
    3.4691   -1.8506    2.3460 H   0  0  0  0  0  0  0  0  0  0  0  0
   -1.2499   -1.1209    2.6493 H   0  0  0  0  0  0  0  0  0  0  0  0
   -2.8359   -1.6505    3.2441 H   0  0  0  0  0  0  0  0  0  0  0  0
   -1.1689   -3.3841    3.7779 H   0  0  0  0  0  0  0  0  0  0  0  0
   -0.6588   -3.4514    2.0642 H   0  0  0  0  0  0  0  0  0  0  0  0
   -3.7892   -4.9084    1.1467 H   0  0  0  0  0  0  0  0  0  0  0  0
   -2.2280   -4.3124    0.5005 H   0  0  0  0  0  0  0  0  0  0  0  0
   -4.4754   -2.5938    1.6769 H   0  0  0  0  0  0  0  0  0  0  0  0
   -4.0052   -2.7114   -0.0465 H   0  0  0  0  0  0  0  0  0  0  0  0
  1  2  3  0  0  0  0
  2  3  1  0  0  0  0
  3  4  1  0  0  0  0
  4  5  2  0  0  0  0
  5  6  1  0  0  0  0
  6  7  2  0  0  0  0
  7  8  1  0  0  0  0
  8  9  2  0  0  0  0
  9 10  1  0  0  0  0
 10 11  2  0  0  0  0
 11 12  1  0  0  0  0
 12 13  2  0  0  0  0
  7 14  1  0  0  0  0
 14 15  2  0  0  0  0
 15 16  1  0  0  0  0
 16 17  2  0  0  0  0
 17 18  1  0  0  0  0
 18 19  1  0  0  0  0
 19 20  1  0  0  0  0
 20 21  1  0  0  0  0
 21 22  1  0  0  0  0
 22 23  1  0  0  0  0
 17 24  1  0  0  0  0
 24 25  1  0  0  0  0
 25 26  1  0  0  0  0
 25 27  1  0  0  0  0
 25 28  1  0  0  0  0
 28 29  2  0  0  0  0
 29 30  1  0  0  0  0
 30 31  1  0  0  0  0
 31 32  1  0  0  0  0
 32 33  1  0  0  0  0
 33 34  1  0  0  0  0
 34 35  1  0  0  0  0
 29  4  1  0  0  0  0
 35 30  1  0  0  0  0
 28  6  1  0  0  0  0
 13  8  1  0  0  0  0
 24 14  1  0  0  0  0
 23 18  1  0  0  0  0
  5 36  1  0  0  0  0
  9 37  1  0  0  0  0
 10 38  1  0  0  0  0
 11 39  1  0  0  0  0
 12 40  1  0  0  0  0
 13 41  1  0  0  0  0
 15 42  1  0  0  0  0
 16 43  1  0  0  0  0
 19 44  1  0  0  0  0
 19 45  1  0  0  0  0
 20 46  1  0  0  0  0
 20 47  1  0  0  0  0
 22 48  1  0  0  0  0
 22 49  1  0  0  0  0
 23 50  1  0  0  0  0
 23 51  1  0  0  0  0
 31 52  1  0  0  0  0
 31 53  1  0  0  0  0
 32 54  1  0  0  0  0
 32 55  1  0  0  0  0
 34 56  1  0  0  0  0
 34 57  1  0  0  0  0
 35 58  1  0  0  0  0
 35 59  1  0  0  0  0
M  CHG  1  25  -1
M  CHG  1  28   1
M  END
