
  xtb     03212211103D
 energy: -99.111759601243 gnorm: 0.000184128939 xtb: 6.4.1 (afa7bdf)
 56 59  0     0  0            999 V2000
   -2.6452    4.0535    0.1031 C   0  0  0  0  0  0  0  0  0  0  0  0
   -3.1842    2.6930   -0.3150 C   0  0  0  0  0  0  0  0  0  0  0  0
   -2.2468    1.6543   -0.0375 O   0  0  0  0  0  0  0  0  0  0  0  0
   -1.2533    1.4888   -0.9218 C   0  0  0  0  0  0  0  0  0  0  0  0
   -1.1324    2.1373   -1.9322 O   0  0  0  0  0  0  0  0  0  0  0  0
   -0.3509    0.4047   -0.5141 C   0  0  0  0  0  0  0  0  0  0  0  0
   -0.6517   -0.8248    0.1213 C   0  0  0  0  0  0  0  0  0  0  0  0
   -1.9521   -1.3234    0.5375 C   0  0  0  0  0  0  0  0  0  0  0  0
   -3.0588   -1.2055   -0.2319 C   0  0  0  0  0  0  0  0  0  0  0  0
   -4.3198   -1.6957    0.2271 C   0  0  0  0  0  0  0  0  0  0  0  0
   -5.5041   -1.6019   -0.5127 C   0  0  0  0  0  0  0  0  0  0  0  0
   -6.6813   -2.1052   -0.0087 C   0  0  0  0  0  0  0  0  0  0  0  0
   -6.7022   -2.7152    1.2433 C   0  0  0  0  0  0  0  0  0  0  0  0
   -5.5491   -2.8204    1.9923 C   0  0  0  0  0  0  0  0  0  0  0  0
   -4.3544   -2.3101    1.4890 C   0  0  0  0  0  0  0  0  0  0  0  0
   -3.2441   -2.4263    2.2515 O   0  0  0  0  0  0  0  0  0  0  0  0
   -2.0201   -1.9577    1.8628 C   0  0  0  0  0  0  0  0  0  0  0  0
   -1.1023   -2.0778    2.6295 O   0  0  0  0  0  0  0  0  0  0  0  0
    0.4575   -1.5174    0.3000 N   0  0  0  0  0  0  0  0  0  0  0  0
    1.4630   -0.8088   -0.1926 N   0  0  0  0  0  0  0  0  0  0  0  0
    2.7625   -1.3232   -0.0284 C   0  0  0  0  0  0  0  0  0  0  0  0
    2.9975   -2.1270    1.0881 C   0  0  0  0  0  0  0  0  0  0  0  0
    4.2422   -2.6740    1.2893 C   0  0  0  0  0  0  0  0  0  0  0  0
    5.2801   -2.4346    0.3823 C   0  0  0  0  0  0  0  0  0  0  0  0
    6.4702   -3.0156    0.6778 O   0  0  0  0  0  0  0  0  0  0  0  0
    7.5578   -2.8137   -0.1932 C   0  0  0  0  0  0  0  0  0  0  0  0
    5.0330   -1.6434   -0.7355 C   0  0  0  0  0  0  0  0  0  0  0  0
    3.7785   -1.0965   -0.9442 C   0  0  0  0  0  0  0  0  0  0  0  0
    1.0311    0.3748   -0.6998 C   0  0  0  0  0  0  0  0  0  0  0  0
    1.8160    1.4916   -1.2728 C   0  0  0  0  0  0  0  0  0  0  0  0
    2.6736    1.4012   -2.1149 O   0  0  0  0  0  0  0  0  0  0  0  0
    1.4029    2.6322   -0.7308 O   0  0  0  0  0  0  0  0  0  0  0  0
    1.9228    3.8487   -1.2732 C   0  0  0  0  0  0  0  0  0  0  0  0
    1.8819    4.9175   -0.1968 C   0  0  0  0  0  0  0  0  0  0  0  0
   -3.4023    4.8145   -0.0633 H   0  0  0  0  0  0  0  0  0  0  0  0
   -2.3743    4.0414    1.1561 H   0  0  0  0  0  0  0  0  0  0  0  0
   -1.7646    4.2953   -0.4870 H   0  0  0  0  0  0  0  0  0  0  0  0
   -4.0766    2.4268    0.2556 H   0  0  0  0  0  0  0  0  0  0  0  0
   -3.4104    2.6913   -1.3870 H   0  0  0  0  0  0  0  0  0  0  0  0
   -3.0041   -0.7526   -1.2121 H   0  0  0  0  0  0  0  0  0  0  0  0
   -5.4751   -1.1285   -1.4828 H   0  0  0  0  0  0  0  0  0  0  0  0
   -7.5917   -2.0298   -0.5833 H   0  0  0  0  0  0  0  0  0  0  0  0
   -7.6286   -3.1096    1.6318 H   0  0  0  0  0  0  0  0  0  0  0  0
   -5.5456   -3.2890    2.9633 H   0  0  0  0  0  0  0  0  0  0  0  0
    2.1887   -2.3088    1.7780 H   0  0  0  0  0  0  0  0  0  0  0  0
    4.4446   -3.2939    2.1476 H   0  0  0  0  0  0  0  0  0  0  0  0
    7.3508   -3.2088   -1.1926 H   0  0  0  0  0  0  0  0  0  0  0  0
    8.3905   -3.3618    0.2446 H   0  0  0  0  0  0  0  0  0  0  0  0
    7.8214   -1.7540   -0.2676 H   0  0  0  0  0  0  0  0  0  0  0  0
    5.8055   -1.4499   -1.4621 H   0  0  0  0  0  0  0  0  0  0  0  0
    3.6013   -0.4962   -1.8211 H   0  0  0  0  0  0  0  0  0  0  0  0
    2.9437    3.6713   -1.6278 H   0  0  0  0  0  0  0  0  0  0  0  0
    1.2951    4.1231   -2.1281 H   0  0  0  0  0  0  0  0  0  0  0  0
    0.8638    5.0505    0.1587 H   0  0  0  0  0  0  0  0  0  0  0  0
    2.5079    4.6313    0.6443 H   0  0  0  0  0  0  0  0  0  0  0  0
    2.2421    5.8578   -0.6040 H   0  0  0  0  0  0  0  0  0  0  0  0
  1  2  1  0  0  0  0
  2  3  1  0  0  0  0
  3  4  1  0  0  0  0
  4  5  2  0  0  0  0
  4  6  1  0  0  0  0
  6  7  1  0  0  0  0
  7  8  1  0  0  0  0
  8  9  2  0  0  0  0
  9 10  1  0  0  0  0
 10 11  2  0  0  0  0
 11 12  1  0  0  0  0
 12 13  2  0  0  0  0
 13 14  1  0  0  0  0
 14 15  2  0  0  0  0
 15 16  1  0  0  0  0
 16 17  1  0  0  0  0
 17 18  2  0  0  0  0
  7 19  2  0  0  0  0
 19 20  1  0  0  0  0
 20 21  1  0  0  0  0
 21 22  2  0  0  0  0
 22 23  1  0  0  0  0
 23 24  2  0  0  0  0
 24 25  1  0  0  0  0
 25 26  1  0  0  0  0
 24 27  1  0  0  0  0
 27 28  2  0  0  0  0
 20 29  1  0  0  0  0
 29 30  1  0  0  0  0
 30 31  2  0  0  0  0
 30 32  1  0  0  0  0
 32 33  1  0  0  0  0
 33 34  1  0  0  0  0
 29  6  2  0  0  0  0
 17  8  1  0  0  0  0
 28 21  1  0  0  0  0
 15 10  1  0  0  0  0
  1 35  1  0  0  0  0
  1 36  1  0  0  0  0
  1 37  1  0  0  0  0
  2 38  1  0  0  0  0
  2 39  1  0  0  0  0
  9 40  1  0  0  0  0
 11 41  1  0  0  0  0
 12 42  1  0  0  0  0
 13 43  1  0  0  0  0
 14 44  1  0  0  0  0
 22 45  1  0  0  0  0
 23 46  1  0  0  0  0
 26 47  1  0  0  0  0
 26 48  1  0  0  0  0
 26 49  1  0  0  0  0
 27 50  1  0  0  0  0
 28 51  1  0  0  0  0
 33 52  1  0  0  0  0
 33 53  1  0  0  0  0
 34 54  1  0  0  0  0
 34 55  1  0  0  0  0
 34 56  1  0  0  0  0
M  END
