
  xtb     03212211043D
 energy: -79.238139433801 gnorm: 0.000229501390 xtb: 6.4.1 (afa7bdf)
 42 43  0     0  0            999 V2000
    0.3791    2.5813    0.6013 O   0  0  0  0  0  0  0  0  0  0  0  0
   -0.3781    1.6409    0.5357 C   0  0  0  0  0  0  0  0  0  0  0  0
   -1.8350    1.7552    0.4845 C   0  0  0  0  0  0  0  0  0  0  0  0
   -2.6522    0.6934    0.4100 C   0  0  0  0  0  0  0  0  0  0  0  0
   -4.0960    0.7089    0.3575 C   0  0  0  0  0  0  0  0  0  0  0  0
   -4.8556    1.8807    0.3902 C   0  0  0  0  0  0  0  0  0  0  0  0
   -6.2333    1.8356    0.3401 C   0  0  0  0  0  0  0  0  0  0  0  0
   -6.8988    0.6196    0.2554 C   0  0  0  0  0  0  0  0  0  0  0  0
   -8.2482    0.5792    0.2074 O   0  0  0  0  0  0  0  0  0  0  0  0
   -6.1473   -0.5665    0.2207 C   0  0  0  0  0  0  0  0  0  0  0  0
   -6.8572   -1.7393    0.1360 O   0  0  0  0  0  0  0  0  0  0  0  0
   -4.7718   -0.5157    0.2716 C   0  0  0  0  0  0  0  0  0  0  0  0
    0.0470    0.3579    0.5086 O   0  0  0  0  0  0  0  0  0  0  0  0
    1.4500    0.1545    0.5613 C   0  0  0  0  0  0  0  0  0  0  0  0
    2.0798    0.2925   -0.8415 C   0  0  0  0  0  0  0  0  0  0  0  0
    3.5421   -0.0417   -0.7939 C   0  0  0  0  0  0  0  0  0  0  0  0
    4.4710    0.8989   -0.3822 C   0  0  0  0  0  0  0  0  0  0  0  0
    5.8119    0.5643   -0.2965 C   0  0  0  0  0  0  0  0  0  0  0  0
    6.2536   -0.7099   -0.6128 C   0  0  0  0  0  0  0  0  0  0  0  0
    7.5620   -1.0714   -0.5354 O   0  0  0  0  0  0  0  0  0  0  0  0
    5.3181   -1.6703   -1.0304 C   0  0  0  0  0  0  0  0  0  0  0  0
    5.7627   -2.9186   -1.3354 O   0  0  0  0  0  0  0  0  0  0  0  0
    3.9807   -1.3216   -1.1136 C   0  0  0  0  0  0  0  0  0  0  0  0
    1.6976   -1.2576    1.0686 C   0  0  0  0  0  0  0  0  0  0  0  0
    1.0902   -2.2353    0.7352 O   0  0  0  0  0  0  0  0  0  0  0  0
    2.7219   -1.2851    1.9219 O   0  0  0  0  0  0  0  0  0  0  0  0
   -2.1940    2.7724    0.5115 H   0  0  0  0  0  0  0  0  0  0  0  0
   -2.1951   -0.2877    0.3860 H   0  0  0  0  0  0  0  0  0  0  0  0
   -4.3650    2.8375    0.4566 H   0  0  0  0  0  0  0  0  0  0  0  0
   -6.8227    2.7378    0.3659 H   0  0  0  0  0  0  0  0  0  0  0  0
   -8.5212   -0.3477    0.1514 H   0  0  0  0  0  0  0  0  0  0  0  0
   -6.2472   -2.4844    0.1190 H   0  0  0  0  0  0  0  0  0  0  0  0
   -4.2034   -1.4362    0.2448 H   0  0  0  0  0  0  0  0  0  0  0  0
    1.9096    0.8780    1.2452 H   0  0  0  0  0  0  0  0  0  0  0  0
    1.9285    1.3218   -1.1708 H   0  0  0  0  0  0  0  0  0  0  0  0
    1.5467   -0.3812   -1.5151 H   0  0  0  0  0  0  0  0  0  0  0  0
    4.1501    1.8971   -0.1289 H   0  0  0  0  0  0  0  0  0  0  0  0
    6.5327    1.3049    0.0231 H   0  0  0  0  0  0  0  0  0  0  0  0
    8.0876   -0.3164   -0.2451 H   0  0  0  0  0  0  0  0  0  0  0  0
    5.0198   -3.4638   -1.6216 H   0  0  0  0  0  0  0  0  0  0  0  0
    3.2645   -2.0679   -1.4337 H   0  0  0  0  0  0  0  0  0  0  0  0
    2.9145   -2.1943    2.2052 H   0  0  0  0  0  0  0  0  0  0  0  0
  1  2  2  0  0  0  0
  2  3  1  0  0  0  0
  3  4  2  0  0  0  0
  4  5  1  0  0  0  0
  5  6  2  0  0  0  0
  6  7  1  0  0  0  0
  7  8  2  0  0  0  0
  8  9  1  0  0  0  0
  8 10  1  0  0  0  0
 10 11  1  0  0  0  0
 10 12  2  0  0  0  0
  2 13  1  0  0  0  0
 13 14  1  0  0  0  0
 14 15  1  0  0  0  0
 15 16  1  0  0  0  0
 16 17  2  0  0  0  0
 17 18  1  0  0  0  0
 18 19  2  0  0  0  0
 19 20  1  0  0  0  0
 19 21  1  0  0  0  0
 21 22  1  0  0  0  0
 21 23  2  0  0  0  0
 14 24  1  0  0  0  0
 24 25  2  0  0  0  0
 24 26  1  0  0  0  0
 12  5  1  0  0  0  0
 23 16  1  0  0  0  0
  3 27  1  0  0  0  0
  4 28  1  0  0  0  0
  6 29  1  0  0  0  0
  7 30  1  0  0  0  0
  9 31  1  0  0  0  0
 11 32  1  0  0  0  0
 12 33  1  0  0  0  0
 14 34  1  0  0  0  0
 15 35  1  0  0  0  0
 15 36  1  0  0  0  0
 17 37  1  0  0  0  0
 18 38  1  0  0  0  0
 20 39  1  0  0  0  0
 22 40  1  0  0  0  0
 23 41  1  0  0  0  0
 26 42  1  0  0  0  0
M  END
