
  xtb     03212210363D
 energy: -124.951455956462 gnorm: 0.000570766700 xtb: 6.4.1 (afa7bdf)
 79 85  0     0  0            999 V2000
   -0.9207   -5.7635    5.5246 C   0  0  0  0  0  0  0  0  0  0  0  0
    0.0373   -4.5936    5.7200 C   0  0  0  0  0  0  0  0  0  0  0  0
   -0.1380   -3.4928    4.6743 C   0  0  0  0  0  0  0  0  0  0  0  0
    0.3031   -3.9380    3.2760 C   0  0  0  0  0  0  0  0  0  0  0  0
    0.2502   -2.8267    2.3463 N   0  0  0  0  0  0  0  0  0  0  0  0
    1.3451   -2.5346    1.5423 C   0  0  0  0  0  0  0  0  0  0  0  0
    2.2365   -3.5274    1.1278 C   0  0  0  0  0  0  0  0  0  0  0  0
    3.3297   -3.2251    0.3448 C   0  0  0  0  0  0  0  0  0  0  0  0
    3.5866   -1.9196   -0.0830 C   0  0  0  0  0  0  0  0  0  0  0  0
    4.7570   -1.6584   -0.8896 C   0  0  0  0  0  0  0  0  0  0  0  0
    5.1686   -0.4622   -1.3382 C   0  0  0  0  0  0  0  0  0  0  0  0
    6.3650   -0.2584   -2.1327 C   0  0  0  0  0  0  0  0  0  0  0  0
    7.4382   -1.0905   -2.0394 C   0  0  0  0  0  0  0  0  0  0  0  0
    8.6580   -0.9004   -2.7885 C   0  0  0  0  0  0  0  0  0  0  0  0
    9.6231   -1.6249   -2.7435 O   0  0  0  0  0  0  0  0  0  0  0  0
    8.7161    0.2003   -3.6031 O   0  0  0  0  0  0  0  0  0  0  0  0
    7.6719    1.0482   -3.7297 C   0  0  0  0  0  0  0  0  0  0  0  0
    7.8448    2.1209   -4.6027 C   0  0  0  0  0  0  0  0  0  0  0  0
    6.8266    3.0287   -4.8161 C   0  0  0  0  0  0  0  0  0  0  0  0
    7.0050    4.1912   -5.7401 C   0  0  0  0  0  0  0  0  0  0  0  0
    5.6146    2.8436   -4.1448 C   0  0  0  0  0  0  0  0  0  0  0  0
    5.4368    1.7921   -3.2784 C   0  0  0  0  0  0  0  0  0  0  0  0
    6.4646    0.8727   -3.0344 C   0  0  0  0  0  0  0  0  0  0  0  0
    2.6745   -0.9310    0.2972 C   0  0  0  0  0  0  0  0  0  0  0  0
    1.5880   -1.2320    1.0901 C   0  0  0  0  0  0  0  0  0  0  0  0
    0.5186    0.0944    1.5764 S   0  0  0  0  0  0  0  0  0  0  0  0
   -0.9884   -0.8245    1.7403 C   0  0  0  0  0  0  0  0  0  0  0  0
   -2.1771   -0.1636    1.5171 C   0  0  0  0  0  0  0  0  0  0  0  0
   -3.4050   -0.8069    1.6975 C   0  0  0  0  0  0  0  0  0  0  0  0
   -4.6815   -0.1586    1.5003 C   0  0  0  0  0  0  0  0  0  0  0  0
   -4.8826    1.1050    1.0950 C   0  0  0  0  0  0  0  0  0  0  0  0
   -6.1924    1.7060    0.9286 C   0  0  0  0  0  0  0  0  0  0  0  0
   -7.2616    1.3095    1.6716 C   0  0  0  0  0  0  0  0  0  0  0  0
   -8.5713    1.9076    1.5599 C   0  0  0  0  0  0  0  0  0  0  0  0
   -9.5450    1.5758    2.1924 O   0  0  0  0  0  0  0  0  0  0  0  0
   -8.7031    2.9411    0.6694 O   0  0  0  0  0  0  0  0  0  0  0  0
   -7.6696    3.3606   -0.0931 C   0  0  0  0  0  0  0  0  0  0  0  0
   -7.9325    4.4064   -0.9762 C   0  0  0  0  0  0  0  0  0  0  0  0
   -6.9457    4.8887   -1.8128 C   0  0  0  0  0  0  0  0  0  0  0  0
   -7.2126    6.0167   -2.7581 C   0  0  0  0  0  0  0  0  0  0  0  0
   -5.6787    4.3001   -1.7612 C   0  0  0  0  0  0  0  0  0  0  0  0
   -5.4089    3.2722   -0.8904 C   0  0  0  0  0  0  0  0  0  0  0  0
   -6.3921    2.7824   -0.0217 C   0  0  0  0  0  0  0  0  0  0  0  0
   -3.3725   -2.1470    2.0929 C   0  0  0  0  0  0  0  0  0  0  0  0
   -2.1832   -2.8110    2.3026 C   0  0  0  0  0  0  0  0  0  0  0  0
   -0.9547   -2.1658    2.1395 C   0  0  0  0  0  0  0  0  0  0  0  0
   -0.7121   -6.2968    4.6005 H   0  0  0  0  0  0  0  0  0  0  0  0
   -0.8233   -6.4685    6.3465 H   0  0  0  0  0  0  0  0  0  0  0  0
   -1.9498   -5.4116    5.4981 H   0  0  0  0  0  0  0  0  0  0  0  0
   -0.1369   -4.1583    6.7060 H   0  0  0  0  0  0  0  0  0  0  0  0
    1.0671   -4.9571    5.6978 H   0  0  0  0  0  0  0  0  0  0  0  0
    0.4668   -2.6282    4.9585 H   0  0  0  0  0  0  0  0  0  0  0  0
   -1.1811   -3.1736    4.6576 H   0  0  0  0  0  0  0  0  0  0  0  0
   -0.3017   -4.7805    2.9238 H   0  0  0  0  0  0  0  0  0  0  0  0
    1.3403   -4.2682    3.3429 H   0  0  0  0  0  0  0  0  0  0  0  0
    2.0651   -4.5546    1.4090 H   0  0  0  0  0  0  0  0  0  0  0  0
    4.0003   -4.0197    0.0523 H   0  0  0  0  0  0  0  0  0  0  0  0
    5.3268   -2.5396   -1.1549 H   0  0  0  0  0  0  0  0  0  0  0  0
    4.5950    0.4232   -1.1106 H   0  0  0  0  0  0  0  0  0  0  0  0
    7.4451   -1.9327   -1.3666 H   0  0  0  0  0  0  0  0  0  0  0  0
    8.7934    2.2147   -5.1079 H   0  0  0  0  0  0  0  0  0  0  0  0
    7.0307    5.1196   -5.1696 H   0  0  0  0  0  0  0  0  0  0  0  0
    6.1724    4.2549   -6.4386 H   0  0  0  0  0  0  0  0  0  0  0  0
    7.9313    4.1053   -6.3010 H   0  0  0  0  0  0  0  0  0  0  0  0
    4.8064    3.5396   -4.3145 H   0  0  0  0  0  0  0  0  0  0  0  0
    4.4839    1.6704   -2.7882 H   0  0  0  0  0  0  0  0  0  0  0  0
    2.8104    0.0946   -0.0063 H   0  0  0  0  0  0  0  0  0  0  0  0
   -2.1326    0.8733    1.2252 H   0  0  0  0  0  0  0  0  0  0  0  0
   -5.5412   -0.7910    1.6811 H   0  0  0  0  0  0  0  0  0  0  0  0
   -4.0388    1.7380    0.8668 H   0  0  0  0  0  0  0  0  0  0  0  0
   -7.1765    0.5358    2.4174 H   0  0  0  0  0  0  0  0  0  0  0  0
   -8.9288    4.8202   -0.9889 H   0  0  0  0  0  0  0  0  0  0  0  0
   -6.6461    6.8976   -2.4573 H   0  0  0  0  0  0  0  0  0  0  0  0
   -6.8998    5.7505   -3.7664 H   0  0  0  0  0  0  0  0  0  0  0  0
   -8.2682    6.2725   -2.7721 H   0  0  0  0  0  0  0  0  0  0  0  0
   -4.9029    4.6608   -2.4203 H   0  0  0  0  0  0  0  0  0  0  0  0
   -4.4252    2.8303   -0.8864 H   0  0  0  0  0  0  0  0  0  0  0  0
   -4.3016   -2.6793    2.2352 H   0  0  0  0  0  0  0  0  0  0  0  0
   -2.2110   -3.8495    2.5899 H   0  0  0  0  0  0  0  0  0  0  0  0
  1  2  1  0  0  0  0
  2  3  1  0  0  0  0
  3  4  1  0  0  0  0
  4  5  1  0  0  0  0
  5  6  1  0  0  0  0
  6  7  2  0  0  0  0
  7  8  1  0  0  0  0
  8  9  2  0  0  0  0
  9 10  1  0  0  0  0
 10 11  2  0  0  0  0
 11 12  1  0  0  0  0
 12 13  2  0  0  0  0
 13 14  1  0  0  0  0
 14 15  2  0  0  0  0
 14 16  1  0  0  0  0
 16 17  1  0  0  0  0
 17 18  2  0  0  0  0
 18 19  1  0  0  0  0
 19 20  1  0  0  0  0
 19 21  2  0  0  0  0
 21 22  1  0  0  0  0
 22 23  2  0  0  0  0
  9 24  1  0  0  0  0
 24 25  2  0  0  0  0
 25 26  1  0  0  0  0
 26 27  1  0  0  0  0
 27 28  2  0  0  0  0
 28 29  1  0  0  0  0
 29 30  1  0  0  0  0
 30 31  2  0  0  0  0
 31 32  1  0  0  0  0
 32 33  2  0  0  0  0
 33 34  1  0  0  0  0
 34 35  2  0  0  0  0
 34 36  1  0  0  0  0
 36 37  1  0  0  0  0
 37 38  2  0  0  0  0
 38 39  1  0  0  0  0
 39 40  1  0  0  0  0
 39 41  2  0  0  0  0
 41 42  1  0  0  0  0
 42 43  2  0  0  0  0
 29 44  2  0  0  0  0
 44 45  1  0  0  0  0
 45 46  2  0  0  0  0
 46  5  1  0  0  0  0
 25  6  1  0  0  0  0
 46 27  1  0  0  0  0
 23 12  1  0  0  0  0
 43 32  1  0  0  0  0
 23 17  1  0  0  0  0
 43 37  1  0  0  0  0
  1 47  1  0  0  0  0
  1 48  1  0  0  0  0
  1 49  1  0  0  0  0
  2 50  1  0  0  0  0
  2 51  1  0  0  0  0
  3 52  1  0  0  0  0
  3 53  1  0  0  0  0
  4 54  1  0  0  0  0
  4 55  1  0  0  0  0
  7 56  1  0  0  0  0
  8 57  1  0  0  0  0
 10 58  1  0  0  0  0
 11 59  1  0  0  0  0
 13 60  1  0  0  0  0
 18 61  1  0  0  0  0
 20 62  1  0  0  0  0
 20 63  1  0  0  0  0
 20 64  1  0  0  0  0
 21 65  1  0  0  0  0
 22 66  1  0  0  0  0
 24 67  1  0  0  0  0
 28 68  1  0  0  0  0
 30 69  1  0  0  0  0
 31 70  1  0  0  0  0
 33 71  1  0  0  0  0
 38 72  1  0  0  0  0
 40 73  1  0  0  0  0
 40 74  1  0  0  0  0
 40 75  1  0  0  0  0
 41 76  1  0  0  0  0
 42 77  1  0  0  0  0
 44 78  1  0  0  0  0
 45 79  1  0  0  0  0
M  END
