
  xtb     03212211483D
 energy: -108.088745223705 gnorm: 0.000290240588 xtb: 6.4.1 (afa7bdf)
 68 74  0     0  0            999 V2000
   -7.9222    0.8399   -0.2783 C   0  0  0  0  0  0  0  0  0  0  0  0
   -7.4653   -0.4780    0.3459 C   0  0  0  0  0  0  0  0  0  0  0  0
   -6.1411   -0.8380   -0.0859 N   0  0  0  0  0  0  0  0  0  0  0  0
   -5.8365   -1.5628   -1.2168 C   0  0  0  0  0  0  0  0  0  0  0  0
   -6.6813   -2.1525   -2.1465 C   0  0  0  0  0  0  0  0  0  0  0  0
   -6.1059   -2.8435   -3.1957 C   0  0  0  0  0  0  0  0  0  0  0  0
   -4.7231   -2.9487   -3.3272 C   0  0  0  0  0  0  0  0  0  0  0  0
   -3.8762   -2.3616   -2.4087 C   0  0  0  0  0  0  0  0  0  0  0  0
   -4.4310   -1.6626   -1.3451 C   0  0  0  0  0  0  0  0  0  0  0  0
   -3.8732   -0.9380   -0.2379 C   0  0  0  0  0  0  0  0  0  0  0  0
   -2.5759   -0.6775    0.1671 C   0  0  0  0  0  0  0  0  0  0  0  0
   -2.3664    0.0800    1.3158 C   0  0  0  0  0  0  0  0  0  0  0  0
   -1.0233    0.3861    1.8014 C   0  0  0  0  0  0  0  0  0  0  0  0
    0.1150    0.3310    0.9984 C   0  0  0  0  0  0  0  0  0  0  0  0
    1.3540    0.6270    1.5722 C   0  0  0  0  0  0  0  0  0  0  0  0
    2.6185    0.5940    0.8470 C   0  0  0  0  0  0  0  0  0  0  0  0
    3.7487    1.1611    1.4645 C   0  0  0  0  0  0  0  0  0  0  0  0
    4.9822    1.1749    0.8569 C   0  0  0  0  0  0  0  0  0  0  0  0
    5.0982    0.6022   -0.4060 C   0  0  0  0  0  0  0  0  0  0  0  0
    3.9724    0.0150   -1.0379 C   0  0  0  0  0  0  0  0  0  0  0  0
    2.7380    0.0134   -0.4132 C   0  0  0  0  0  0  0  0  0  0  0  0
    4.4376   -0.4929   -2.2985 C   0  0  0  0  0  0  0  0  0  0  0  0
    3.8227   -1.1651   -3.3459 C   0  0  0  0  0  0  0  0  0  0  0  0
    4.5852   -1.5243   -4.4394 C   0  0  0  0  0  0  0  0  0  0  0  0
    5.9436   -1.2219   -4.4955 C   0  0  0  0  0  0  0  0  0  0  0  0
    6.5777   -0.5530   -3.4658 C   0  0  0  0  0  0  0  0  0  0  0  0
    5.8172   -0.1856   -2.3648 C   0  0  0  0  0  0  0  0  0  0  0  0
    6.1896    0.4892   -1.2235 N   0  0  0  0  0  0  0  0  0  0  0  0
    7.5264    0.9102   -0.8986 C   0  0  0  0  0  0  0  0  0  0  0  0
    8.3025   -0.1892   -0.1749 C   0  0  0  0  0  0  0  0  0  0  0  0
    1.4157    0.9807    2.8676 N   0  0  0  0  0  0  0  0  0  0  0  0
    0.2891    1.0253    3.5232 C   0  0  0  0  0  0  0  0  0  0  0  0
    0.3997    1.5244    5.2671 S   0  0  0  0  0  6  0  0  0  0  0  0
   -1.3346    1.5649    5.8065 C   0  0  0  0  0  0  0  0  0  0  0  0
    0.9334    2.8584    5.3361 O   0  0  0  0  0  0  0  0  0  0  0  0
    1.0852    0.4948    6.0005 O   0  0  0  0  0  0  0  0  0  0  0  0
   -0.9177    0.7511    3.0922 N   0  0  0  0  0  0  0  0  0  0  0  0
   -3.4682    0.5582    2.0455 C   0  0  0  0  0  0  0  0  0  0  0  0
   -4.7651    0.3161    1.6550 C   0  0  0  0  0  0  0  0  0  0  0  0
   -4.9731   -0.4393    0.5055 C   0  0  0  0  0  0  0  0  0  0  0  0
   -8.9241    1.0885    0.0612 H   0  0  0  0  0  0  0  0  0  0  0  0
   -7.9290    0.7603   -1.3629 H   0  0  0  0  0  0  0  0  0  0  0  0
   -7.2465    1.6441    0.0034 H   0  0  0  0  0  0  0  0  0  0  0  0
   -7.4642   -0.3965    1.4362 H   0  0  0  0  0  0  0  0  0  0  0  0
   -8.1506   -1.2829    0.0674 H   0  0  0  0  0  0  0  0  0  0  0  0
   -7.7551   -2.0776   -2.0634 H   0  0  0  0  0  0  0  0  0  0  0  0
   -6.7427   -3.3111   -3.9319 H   0  0  0  0  0  0  0  0  0  0  0  0
   -4.3131   -3.4971   -4.1619 H   0  0  0  0  0  0  0  0  0  0  0  0
   -2.8046   -2.4423   -2.5116 H   0  0  0  0  0  0  0  0  0  0  0  0
   -1.7497   -1.0842   -0.3947 H   0  0  0  0  0  0  0  0  0  0  0  0
    0.0326    0.0952   -0.0485 H   0  0  0  0  0  0  0  0  0  0  0  0
    3.6163    1.5899    2.4449 H   0  0  0  0  0  0  0  0  0  0  0  0
    5.8312    1.6158    1.3566 H   0  0  0  0  0  0  0  0  0  0  0  0
    1.8974   -0.4537   -0.9021 H   0  0  0  0  0  0  0  0  0  0  0  0
    2.7702   -1.4017   -3.3024 H   0  0  0  0  0  0  0  0  0  0  0  0
    4.1273   -2.0489   -5.2646 H   0  0  0  0  0  0  0  0  0  0  0  0
    6.5148   -1.5188   -5.3627 H   0  0  0  0  0  0  0  0  0  0  0  0
    7.6325   -0.3307   -3.5247 H   0  0  0  0  0  0  0  0  0  0  0  0
    8.0378    1.1839   -1.8255 H   0  0  0  0  0  0  0  0  0  0  0  0
    7.4647    1.8020   -0.2694 H   0  0  0  0  0  0  0  0  0  0  0  0
    8.3724   -1.0758   -0.8010 H   0  0  0  0  0  0  0  0  0  0  0  0
    9.3063    0.1535    0.0612 H   0  0  0  0  0  0  0  0  0  0  0  0
    7.7976   -0.4594    0.7495 H   0  0  0  0  0  0  0  0  0  0  0  0
   -1.8298    2.3584    5.2646 H   0  0  0  0  0  0  0  0  0  0  0  0
   -1.7708    0.6008    5.5855 H   0  0  0  0  0  0  0  0  0  0  0  0
   -1.3359    1.7610    6.8713 H   0  0  0  0  0  0  0  0  0  0  0  0
   -3.2675    1.1380    2.9323 H   0  0  0  0  0  0  0  0  0  0  0  0
   -5.5907    0.7068    2.2303 H   0  0  0  0  0  0  0  0  0  0  0  0
  1  2  1  0  0  0  0
  2  3  1  0  0  0  0
  3  4  1  0  0  0  0
  4  5  2  0  0  0  0
  5  6  1  0  0  0  0
  6  7  2  0  0  0  0
  7  8  1  0  0  0  0
  8  9  2  0  0  0  0
  9 10  1  0  0  0  0
 10 11  2  0  0  0  0
 11 12  1  0  0  0  0
 12 13  1  0  0  0  0
 13 14  2  0  0  0  0
 14 15  1  0  0  0  0
 15 16  1  0  0  0  0
 16 17  2  0  0  0  0
 17 18  1  0  0  0  0
 18 19  2  0  0  0  0
 19 20  1  0  0  0  0
 20 21  2  0  0  0  0
 20 22  1  0  0  0  0
 22 23  2  0  0  0  0
 23 24  1  0  0  0  0
 24 25  2  0  0  0  0
 25 26  1  0  0  0  0
 26 27  2  0  0  0  0
 27 28  1  0  0  0  0
 28 29  1  0  0  0  0
 29 30  1  0  0  0  0
 15 31  2  0  0  0  0
 31 32  1  0  0  0  0
 32 33  1  0  0  0  0
 33 34  1  0  0  0  0
 33 35  2  0  0  0  0
 33 36  2  0  0  0  0
 32 37  2  0  0  0  0
 12 38  2  0  0  0  0
 38 39  1  0  0  0  0
 39 40  2  0  0  0  0
 40  3  1  0  0  0  0
  9  4  1  0  0  0  0
 40 10  1  0  0  0  0
 37 13  1  0  0  0  0
 21 16  1  0  0  0  0
 27 22  1  0  0  0  0
 28 19  1  0  0  0  0
  1 41  1  0  0  0  0
  1 42  1  0  0  0  0
  1 43  1  0  0  0  0
  2 44  1  0  0  0  0
  2 45  1  0  0  0  0
  5 46  1  0  0  0  0
  6 47  1  0  0  0  0
  7 48  1  0  0  0  0
  8 49  1  0  0  0  0
 11 50  1  0  0  0  0
 14 51  1  0  0  0  0
 17 52  1  0  0  0  0
 18 53  1  0  0  0  0
 21 54  1  0  0  0  0
 23 55  1  0  0  0  0
 24 56  1  0  0  0  0
 25 57  1  0  0  0  0
 26 58  1  0  0  0  0
 29 59  1  0  0  0  0
 29 60  1  0  0  0  0
 30 61  1  0  0  0  0
 30 62  1  0  0  0  0
 30 63  1  0  0  0  0
 34 64  1  0  0  0  0
 34 65  1  0  0  0  0
 34 66  1  0  0  0  0
 38 67  1  0  0  0  0
 39 68  1  0  0  0  0
M  END
