
  xtb     03212212263D
 energy: -64.305072978906 gnorm: 0.000264828939 xtb: 6.4.1 (afa7bdf)
 39 41  0     0  0            999 V2000
   -5.5050    0.7579    1.2155 C   0  0  0  0  0  0  0  0  0  0  0  0
   -4.9461    0.9099   -0.2018 C   0  0  0  0  0  0  0  0  0  0  0  0
   -3.4696    0.7123   -0.2066 C   0  0  0  0  0  0  0  0  0  0  0  0
   -2.7379   -0.4120   -0.3737 C   0  0  0  0  0  0  0  0  0  0  0  0
   -3.2003   -1.7987   -0.6444 C   0  0  0  0  0  0  0  0  0  0  0  0
   -1.3352   -0.0657   -0.2424 C   0  0  0  0  0  0  0  0  0  0  0  0
   -0.2307   -0.8407   -0.3302 C   0  0  0  0  0  0  0  0  0  0  0  0
    1.0528   -0.2450   -0.1544 C   0  0  0  0  0  0  0  0  0  0  0  0
    2.2444   -1.0005   -0.2330 C   0  0  0  0  0  0  0  0  0  0  0  0
    2.0851   -2.3257   -0.4874 O   0  0  0  0  0  0  0  0  0  0  0  0
    3.2243   -3.1458   -0.5858 C   0  0  0  0  0  0  0  0  0  0  0  0
    3.4730   -0.3856   -0.0548 C   0  0  0  0  0  0  0  0  0  0  0  0
    3.5485    0.9857    0.2032 C   0  0  0  0  0  0  0  0  0  0  0  0
    4.7065    1.6629    0.3892 O   0  0  0  0  0  0  0  0  0  0  0  0
    5.9299    0.9705    0.3259 C   0  0  0  0  0  0  0  0  0  0  0  0
    2.3812    1.7384    0.2815 C   0  0  0  0  0  0  0  0  0  0  0  0
    1.1473    1.1338    0.1057 C   0  0  0  0  0  0  0  0  0  0  0  0
   -0.0598    1.9867    0.2019 C   0  0  0  0  0  0  0  0  0  0  0  0
   -0.0193    3.1719    0.4235 O   0  0  0  0  0  0  0  0  0  0  0  0
   -1.2543    1.2971    0.0145 N   0  0  0  0  0  0  0  0  0  0  0  0
   -2.5630    1.8464    0.0488 C   0  0  0  0  0  0  0  0  0  0  0  0
   -2.8404    2.9992    0.2415 O   0  0  0  0  0  0  0  0  0  0  0  0
   -5.0476    1.4912    1.8746 H   0  0  0  0  0  0  0  0  0  0  0  0
   -5.2970   -0.2369    1.6040 H   0  0  0  0  0  0  0  0  0  0  0  0
   -6.5807    0.9152    1.2144 H   0  0  0  0  0  0  0  0  0  0  0  0
   -5.4275    0.1919   -0.8687 H   0  0  0  0  0  0  0  0  0  0  0  0
   -5.1579    1.9195   -0.5585 H   0  0  0  0  0  0  0  0  0  0  0  0
   -4.2795   -1.8285   -0.7617 H   0  0  0  0  0  0  0  0  0  0  0  0
   -2.7331   -2.1814   -1.5506 H   0  0  0  0  0  0  0  0  0  0  0  0
   -2.9191   -2.4541    0.1792 H   0  0  0  0  0  0  0  0  0  0  0  0
   -0.3006   -1.8960   -0.5292 H   0  0  0  0  0  0  0  0  0  0  0  0
    3.7901   -3.1637    0.3510 H   0  0  0  0  0  0  0  0  0  0  0  0
    2.8478   -4.1458   -0.7954 H   0  0  0  0  0  0  0  0  0  0  0  0
    3.8790   -2.8293   -1.4039 H   0  0  0  0  0  0  0  0  0  0  0  0
    4.3768   -0.9683   -0.1152 H   0  0  0  0  0  0  0  0  0  0  0  0
    5.9964    0.1973    1.0984 H   0  0  0  0  0  0  0  0  0  0  0  0
    6.6994    1.7198    0.5034 H   0  0  0  0  0  0  0  0  0  0  0  0
    6.0882    0.5195   -0.6592 H   0  0  0  0  0  0  0  0  0  0  0  0
    2.4341    2.7963    0.4799 H   0  0  0  0  0  0  0  0  0  0  0  0
  1  2  1  0  0  0  0
  2  3  1  0  0  0  0
  3  4  2  0  0  0  0
  4  5  1  0  0  0  0
  4  6  1  0  0  0  0
  6  7  2  0  0  0  0
  7  8  1  0  0  0  0
  8  9  2  0  0  0  0
  9 10  1  0  0  0  0
 10 11  1  0  0  0  0
  9 12  1  0  0  0  0
 12 13  2  0  0  0  0
 13 14  1  0  0  0  0
 14 15  1  0  0  0  0
 13 16  1  0  0  0  0
 16 17  2  0  0  0  0
 17 18  1  0  0  0  0
 18 19  2  0  0  0  0
 18 20  1  0  0  0  0
 20 21  1  0  0  0  0
 21 22  2  0  0  0  0
 21  3  1  0  0  0  0
 20  6  1  0  0  0  0
 17  8  1  0  0  0  0
  1 23  1  0  0  0  0
  1 24  1  0  0  0  0
  1 25  1  0  0  0  0
  2 26  1  0  0  0  0
  2 27  1  0  0  0  0
  5 28  1  0  0  0  0
  5 29  1  0  0  0  0
  5 30  1  0  0  0  0
  7 31  1  0  0  0  0
 11 32  1  0  0  0  0
 11 33  1  0  0  0  0
 11 34  1  0  0  0  0
 12 35  1  0  0  0  0
 15 36  1  0  0  0  0
 15 37  1  0  0  0  0
 15 38  1  0  0  0  0
 16 39  1  0  0  0  0
M  END
