
  xtb     03212212033D
 energy: -66.723864297058 gnorm: 0.000119108856 xtb: 6.4.1 (afa7bdf)
 43 47  0     0  0            999 V2000
   -2.5563   -4.2559    0.0729 C   0  0  0  0  0  0  0  0  0  0  0  0
   -2.0837   -2.8392   -0.0171 C   0  0  0  0  0  0  0  0  0  0  0  0
   -2.9747   -1.8146   -0.2566 C   0  0  0  0  0  0  0  0  0  0  0  0
   -2.5379   -0.4828   -0.3412 C   0  0  0  0  0  0  0  0  0  0  0  0
   -3.4406    0.6470   -0.5947 C   0  0  0  0  0  0  0  0  0  0  0  0
   -4.8200    0.4993   -0.7385 C   0  0  0  0  0  0  0  0  0  0  0  0
   -5.6242    1.5981   -0.9776 C   0  0  0  0  0  0  0  0  0  0  0  0
   -5.0722    2.8639   -1.0771 C   0  0  0  0  0  0  0  0  0  0  0  0
   -3.7034    3.0254   -0.9347 C   0  0  0  0  0  0  0  0  0  0  0  0
   -2.8982    1.9303   -0.6967 C   0  0  0  0  0  0  0  0  0  0  0  0
   -1.2543   -0.1796   -0.1935 N   0  0  0  0  0  0  0  0  0  0  0  0
   -0.3843   -1.1494    0.0356 C   0  0  0  0  0  0  0  0  0  0  0  0
   -0.7171   -2.5208    0.1402 C   0  0  0  0  0  0  0  0  0  0  0  0
    0.3130   -3.4747    0.3893 C   0  0  0  0  0  0  0  0  0  0  0  0
    1.6068   -3.0871    0.5267 C   0  0  0  0  0  0  0  0  0  0  0  0
    1.9391   -1.7198    0.4226 C   0  0  0  0  0  0  0  0  0  0  0  0
    3.1059   -1.1261    0.5196 N   0  0  0  0  0  0  0  0  0  0  0  0
    2.8769    0.2044    0.3417 C   0  0  0  0  0  0  0  0  0  0  0  0
    3.9639    1.1675    0.3871 C   0  0  0  0  0  0  0  0  0  0  0  0
    5.2647    0.7193    0.6155 C   0  0  0  0  0  0  0  0  0  0  0  0
    6.3154    1.6140    0.6634 C   0  0  0  0  0  0  0  0  0  0  0  0
    6.0849    2.9687    0.4845 C   0  0  0  0  0  0  0  0  0  0  0  0
    4.7959    3.4228    0.2571 C   0  0  0  0  0  0  0  0  0  0  0  0
    3.7406    2.5320    0.2080 C   0  0  0  0  0  0  0  0  0  0  0  0
    1.5279    0.4249    0.1299 C   0  0  0  0  0  0  0  0  0  0  0  0
    0.9309   -0.7948    0.1807 N   0  0  0  0  0  0  0  0  0  0  0  0
   -2.3141   -4.6767    1.0480 H   0  0  0  0  0  0  0  0  0  0  0  0
   -2.0737   -4.8675   -0.6884 H   0  0  0  0  0  0  0  0  0  0  0  0
   -3.6325   -4.3102   -0.0701 H   0  0  0  0  0  0  0  0  0  0  0  0
   -4.0189   -2.0522   -0.3807 H   0  0  0  0  0  0  0  0  0  0  0  0
   -5.2828   -0.4725   -0.6639 H   0  0  0  0  0  0  0  0  0  0  0  0
   -6.6908    1.4649   -1.0868 H   0  0  0  0  0  0  0  0  0  0  0  0
   -5.7053    3.7187   -1.2639 H   0  0  0  0  0  0  0  0  0  0  0  0
   -3.2649    4.0098   -1.0100 H   0  0  0  0  0  0  0  0  0  0  0  0
   -1.8320    2.0435   -0.5848 H   0  0  0  0  0  0  0  0  0  0  0  0
    0.0496   -4.5172    0.4673 H   0  0  0  0  0  0  0  0  0  0  0  0
    2.4027   -3.7882    0.7146 H   0  0  0  0  0  0  0  0  0  0  0  0
    5.4239   -0.3387    0.7524 H   0  0  0  0  0  0  0  0  0  0  0  0
    7.3196    1.2568    0.8410 H   0  0  0  0  0  0  0  0  0  0  0  0
    6.9065    3.6693    0.5220 H   0  0  0  0  0  0  0  0  0  0  0  0
    4.6136    4.4788    0.1172 H   0  0  0  0  0  0  0  0  0  0  0  0
    2.7398    2.8955    0.0303 H   0  0  0  0  0  0  0  0  0  0  0  0
    0.9602    1.3132   -0.0462 H   0  0  0  0  0  0  0  0  0  0  0  0
  1  2  1  0  0  0  0
  2  3  2  0  0  0  0
  3  4  1  0  0  0  0
  4  5  1  0  0  0  0
  5  6  2  0  0  0  0
  6  7  1  0  0  0  0
  7  8  2  0  0  0  0
  8  9  1  0  0  0  0
  9 10  2  0  0  0  0
  4 11  2  0  0  0  0
 11 12  1  0  0  0  0
 12 13  2  0  0  0  0
 13 14  1  0  0  0  0
 14 15  2  0  0  0  0
 15 16  1  0  0  0  0
 16 17  2  0  0  0  0
 17 18  1  0  0  0  0
 18 19  1  0  0  0  0
 19 20  2  0  0  0  0
 20 21  1  0  0  0  0
 21 22  2  0  0  0  0
 22 23  1  0  0  0  0
 23 24  2  0  0  0  0
 18 25  2  0  0  0  0
 25 26  1  0  0  0  0
 13  2  1  0  0  0  0
 26 16  1  0  0  0  0
 10  5  1  0  0  0  0
 26 12  1  0  0  0  0
 24 19  1  0  0  0  0
  1 27  1  0  0  0  0
  1 28  1  0  0  0  0
  1 29  1  0  0  0  0
  3 30  1  0  0  0  0
  6 31  1  0  0  0  0
  7 32  1  0  0  0  0
  8 33  1  0  0  0  0
  9 34  1  0  0  0  0
 10 35  1  0  0  0  0
 14 36  1  0  0  0  0
 15 37  1  0  0  0  0
 20 38  1  0  0  0  0
 21 39  1  0  0  0  0
 22 40  1  0  0  0  0
 23 41  1  0  0  0  0
 24 42  1  0  0  0  0
 25 43  1  0  0  0  0
M  END
