
  xtb     03212210273D
 energy: -74.927636251205 gnorm: 0.000748464343 xtb: 6.4.1 (afa7bdf)
 38 41  0     0  0            999 V2000
    2.2928    3.5454   -2.4807 N   0  0  0  0  0  0  0  0  0  0  0  0
    1.5049    2.8435   -2.0231 C   0  0  0  0  0  0  0  0  0  0  0  0
    0.5388    2.0071   -1.4785 C   0  0  0  0  0  0  0  0  0  0  0  0
   -0.6153    2.3968   -0.8605 C   0  0  0  0  0  0  0  0  0  0  0  0
   -1.0936    3.6196   -0.5999 N   0  0  0  0  0  0  0  0  0  0  0  0
   -1.3275    1.2653   -0.4495 N   0  0  0  0  0  0  0  0  0  0  0  0
   -2.5539    1.2295    0.1613 C   0  0  0  0  0  0  0  0  0  0  0  0
   -3.1561    2.2606    0.4266 O   0  0  0  0  0  0  0  0  0  0  0  0
   -3.0370   -0.1239    0.4498 C   0  0  0  0  0  0  0  0  0  0  0  0
   -4.2741   -0.2759    1.0772 C   0  0  0  0  0  0  0  0  0  0  0  0
   -4.7585   -1.5358    1.3617 C   0  0  0  0  0  0  0  0  0  0  0  0
   -4.0158   -2.6624    1.0257 C   0  0  0  0  0  0  0  0  0  0  0  0
   -2.7904   -2.5259    0.4049 C   0  0  0  0  0  0  0  0  0  0  0  0
   -2.2898   -1.2599    0.1104 C   0  0  0  0  0  0  0  0  0  0  0  0
   -0.9840   -1.1480   -0.5599 C   0  0  0  0  0  0  0  0  0  0  0  0
   -0.2745   -2.0763   -0.8935 O   0  0  0  0  0  0  0  0  0  0  0  0
   -0.6048    0.1377   -0.8042 N   0  0  0  0  0  0  0  0  0  0  0  0
    0.6445    0.4996   -1.4589 C   0  0  0  0  0  0  0  0  0  0  0  0
    1.8422    0.0150   -0.6755 C   0  0  0  0  0  0  0  0  0  0  0  0
    1.9015    0.2331    0.6977 C   0  0  0  0  0  0  0  0  0  0  0  0
    2.9943   -0.1927    1.4238 C   0  0  0  0  0  0  0  0  0  0  0  0
    4.0361   -0.8336    0.7649 C   0  0  0  0  0  0  0  0  0  0  0  0
    5.1796   -1.2838    1.5209 N   0  0  0  0  0  4  0  0  0  0  0  0
    5.1762   -1.0835    2.7165 O   0  0  0  0  0  0  0  0  0  0  0  0
    6.0738   -1.8321    0.9151 O   0  0  0  0  0  1  0  0  0  0  0  0
    3.9937   -1.0498   -0.6062 C   0  0  0  0  0  0  0  0  0  0  0  0
    2.8928   -0.6236   -1.3222 C   0  0  0  0  0  0  0  0  0  0  0  0
   -2.0181    3.6796   -0.1885 H   0  0  0  0  0  0  0  0  0  0  0  0
   -0.6183    4.4244   -0.9661 H   0  0  0  0  0  0  0  0  0  0  0  0
   -4.8313    0.6138    1.3284 H   0  0  0  0  0  0  0  0  0  0  0  0
   -5.7165   -1.6465    1.8464 H   0  0  0  0  0  0  0  0  0  0  0  0
   -4.3986   -3.6463    1.2502 H   0  0  0  0  0  0  0  0  0  0  0  0
   -2.1937   -3.3831    0.1325 H   0  0  0  0  0  0  0  0  0  0  0  0
    0.6709    0.0609   -2.4662 H   0  0  0  0  0  0  0  0  0  0  0  0
    1.0898    0.7360    1.2029 H   0  0  0  0  0  0  0  0  0  0  0  0
    3.0574   -0.0393    2.4902 H   0  0  0  0  0  0  0  0  0  0  0  0
    4.8178   -1.5529   -1.0874 H   0  0  0  0  0  0  0  0  0  0  0  0
    2.8448   -0.7931   -2.3864 H   0  0  0  0  0  0  0  0  0  0  0  0
  1  2  3  0  0  0  0
  2  3  1  0  0  0  0
  3  4  2  0  0  0  0
  4  5  1  0  0  0  0
  4  6  1  0  0  0  0
  6  7  1  0  0  0  0
  7  8  2  0  0  0  0
  7  9  1  0  0  0  0
  9 10  2  0  0  0  0
 10 11  1  0  0  0  0
 11 12  2  0  0  0  0
 12 13  1  0  0  0  0
 13 14  2  0  0  0  0
 14 15  1  0  0  0  0
 15 16  2  0  0  0  0
 15 17  1  0  0  0  0
 17 18  1  0  0  0  0
 18 19  1  0  0  0  0
 19 20  2  0  0  0  0
 20 21  1  0  0  0  0
 21 22  2  0  0  0  0
 22 23  1  0  0  0  0
 23 24  2  0  0  0  0
 23 25  1  0  0  0  0
 22 26  1  0  0  0  0
 26 27  2  0  0  0  0
 18  3  1  0  0  0  0
 27 19  1  0  0  0  0
 17  6  1  0  0  0  0
 14  9  1  0  0  0  0
  5 28  1  0  0  0  0
  5 29  1  0  0  0  0
 10 30  1  0  0  0  0
 11 31  1  0  0  0  0
 12 32  1  0  0  0  0
 13 33  1  0  0  0  0
 18 34  1  0  0  0  0
 20 35  1  0  0  0  0
 21 36  1  0  0  0  0
 26 37  1  0  0  0  0
 27 38  1  0  0  0  0
M  CHG  1  23   1
M  CHG  1  25  -1
M  END
