
  xtb     03212211183D
 energy: -70.119684976521 gnorm: 0.000210613781 xtb: 6.4.1 (afa7bdf)
 46 49  0     0  0            999 V2000
   -6.3343   -2.3196   -0.3292 C   0  0  0  0  0  0  0  0  0  0  0  0
   -6.0320   -1.0101   -1.0602 C   0  0  0  0  0  0  0  0  0  0  0  0
   -5.2998   -0.0731   -0.2367 N   0  0  0  0  0  0  0  0  0  0  0  0
   -6.1060    0.8502    0.5312 C   0  0  0  0  0  0  0  0  0  0  0  0
   -6.3769    2.1553   -0.2198 C   0  0  0  0  0  0  0  0  0  0  0  0
   -3.9374   -0.0598   -0.1897 C   0  0  0  0  0  0  0  0  0  0  0  0
   -3.2294    0.9627    0.4723 C   0  0  0  0  0  0  0  0  0  0  0  0
   -1.8585    0.9759    0.5194 C   0  0  0  0  0  0  0  0  0  0  0  0
   -1.0901   -0.0237   -0.0949 C   0  0  0  0  0  0  0  0  0  0  0  0
    0.3403   -0.0512   -0.0838 C   0  0  0  0  0  0  0  0  0  0  0  0
    1.1696    0.8316    0.5222 C   0  0  0  0  0  0  0  0  0  0  0  0
    2.5790    0.7014    0.4519 C   0  0  0  0  0  0  0  0  0  0  0  0
    3.2284   -0.2154   -0.1770 N   0  0  0  0  0  0  0  0  0  0  0  0
    4.5648   -0.0755   -0.0700 C   0  0  0  0  0  0  0  0  0  0  0  0
    5.4464   -0.8685   -0.6185 N   0  0  0  0  0  0  0  0  0  0  0  0
    6.7444   -0.5741   -0.4087 C   0  0  0  0  0  0  0  0  0  0  0  0
    7.7378   -1.3942   -0.9813 C   0  0  0  0  0  0  0  0  0  0  0  0
    9.0597   -1.1104   -0.7800 C   0  0  0  0  0  0  0  0  0  0  0  0
    9.4486   -0.0054   -0.0036 C   0  0  0  0  0  0  0  0  0  0  0  0
    8.5125    0.8118    0.5673 C   0  0  0  0  0  0  0  0  0  0  0  0
    7.1436    0.5483    0.3779 C   0  0  0  0  0  0  0  0  0  0  0  0
    6.2255    1.3658    0.9436 N   0  0  0  0  0  0  0  0  0  0  0  0
    4.9840    1.0626    0.7241 C   0  0  0  0  0  0  0  0  0  0  0  0
    3.5977    1.9173    1.3054 S   0  0  0  0  0  0  0  0  0  0  0  0
   -1.7943   -1.0412   -0.7559 C   0  0  0  0  0  0  0  0  0  0  0  0
   -3.1652   -1.0662   -0.8013 C   0  0  0  0  0  0  0  0  0  0  0  0
   -5.4138   -2.8094   -0.0232 H   0  0  0  0  0  0  0  0  0  0  0  0
   -6.8896   -2.9901   -0.9797 H   0  0  0  0  0  0  0  0  0  0  0  0
   -6.9294   -2.1289    0.5609 H   0  0  0  0  0  0  0  0  0  0  0  0
   -5.4711   -1.2099   -1.9760 H   0  0  0  0  0  0  0  0  0  0  0  0
   -6.9724   -0.5357   -1.3542 H   0  0  0  0  0  0  0  0  0  0  0  0
   -7.0570    0.3593    0.7556 H   0  0  0  0  0  0  0  0  0  0  0  0
   -5.6171    1.0583    1.4856 H   0  0  0  0  0  0  0  0  0  0  0  0
   -6.9051    1.9559   -1.1493 H   0  0  0  0  0  0  0  0  0  0  0  0
   -6.9869    2.8165    0.3899 H   0  0  0  0  0  0  0  0  0  0  0  0
   -5.4451    2.6597   -0.4608 H   0  0  0  0  0  0  0  0  0  0  0  0
   -3.7591    1.7710    0.9491 H   0  0  0  0  0  0  0  0  0  0  0  0
   -1.3672    1.7860    1.0358 H   0  0  0  0  0  0  0  0  0  0  0  0
    0.8084   -0.8672   -0.6192 H   0  0  0  0  0  0  0  0  0  0  0  0
    0.8014    1.6748    1.0865 H   0  0  0  0  0  0  0  0  0  0  0  0
    7.4166   -2.2369   -1.5732 H   0  0  0  0  0  0  0  0  0  0  0  0
    9.8208   -1.7382   -1.2197 H   0  0  0  0  0  0  0  0  0  0  0  0
   10.5004    0.1946    0.1391 H   0  0  0  0  0  0  0  0  0  0  0  0
    8.7872    1.6658    1.1667 H   0  0  0  0  0  0  0  0  0  0  0  0
   -1.2377   -1.8331   -1.2364 H   0  0  0  0  0  0  0  0  0  0  0  0
   -3.6416   -1.8873   -1.3109 H   0  0  0  0  0  0  0  0  0  0  0  0
  1  2  1  0  0  0  0
  2  3  1  0  0  0  0
  3  4  1  0  0  0  0
  4  5  1  0  0  0  0
  3  6  1  0  0  0  0
  6  7  2  0  0  0  0
  7  8  1  0  0  0  0
  8  9  2  0  0  0  0
  9 10  1  0  0  0  0
 10 11  2  0  0  0  0
 11 12  1  0  0  0  0
 12 13  2  0  0  0  0
 13 14  1  0  0  0  0
 14 15  2  0  0  0  0
 15 16  1  0  0  0  0
 16 17  2  0  0  0  0
 17 18  1  0  0  0  0
 18 19  2  0  0  0  0
 19 20  1  0  0  0  0
 20 21  2  0  0  0  0
 21 22  1  0  0  0  0
 22 23  2  0  0  0  0
 23 24  1  0  0  0  0
  9 25  1  0  0  0  0
 25 26  2  0  0  0  0
 26  6  1  0  0  0  0
 24 12  1  0  0  0  0
 23 14  1  0  0  0  0
 21 16  1  0  0  0  0
  1 27  1  0  0  0  0
  1 28  1  0  0  0  0
  1 29  1  0  0  0  0
  2 30  1  0  0  0  0
  2 31  1  0  0  0  0
  4 32  1  0  0  0  0
  4 33  1  0  0  0  0
  5 34  1  0  0  0  0
  5 35  1  0  0  0  0
  5 36  1  0  0  0  0
  7 37  1  0  0  0  0
  8 38  1  0  0  0  0
 10 39  1  0  0  0  0
 11 40  1  0  0  0  0
 17 41  1  0  0  0  0
 18 42  1  0  0  0  0
 19 43  1  0  0  0  0
 20 44  1  0  0  0  0
 25 45  1  0  0  0  0
 26 46  1  0  0  0  0
M  END
