
  xtb     03212212183D
 energy: -51.922265605376 gnorm: 0.000139548085 xtb: 6.4.1 (afa7bdf)
 31 33  0     0  0            999 V2000
   -0.8170    0.9602    1.9017 C   0  0  0  0  0  0  0  0  0  0  0  0
   -0.3178    0.2715    0.6702 C   0  0  0  0  0  0  0  0  0  0  0  0
   -1.0758   -0.2847   -0.2949 C   0  0  0  0  0  0  0  0  0  0  0  0
   -2.5227   -0.3956   -0.3443 C   0  0  0  0  0  0  0  0  0  0  0  0
   -3.1546   -0.3524   -1.5914 C   0  0  0  0  0  0  0  0  0  0  0  0
   -4.5263   -0.4443   -1.7044 C   0  0  0  0  0  0  0  0  0  0  0  0
   -5.2928   -0.6071   -0.5599 C   0  0  0  0  0  0  0  0  0  0  0  0
   -7.0119   -0.7285   -0.6906 Cl  0  0  0  0  0  0  0  0  0  0  0  0
   -4.6904   -0.6886    0.6855 C   0  0  0  0  0  0  0  0  0  0  0  0
   -3.3169   -0.5810    0.7893 C   0  0  0  0  0  0  0  0  0  0  0  0
    1.1196    0.2680    0.5172 C   0  0  0  0  0  0  0  0  0  0  0  0
    1.9617    0.8333    1.3274 N   0  0  0  0  0  0  0  0  0  0  0  0
    3.2016    0.5790    0.8043 C   0  0  0  0  0  0  0  0  0  0  0  0
    4.4761    0.9296    1.2321 C   0  0  0  0  0  0  0  0  0  0  0  0
    5.5386    0.5075    0.4598 C   0  0  0  0  0  0  0  0  0  0  0  0
    5.3528   -0.2403   -0.7037 C   0  0  0  0  0  0  0  0  0  0  0  0
    4.0927   -0.5996   -1.1464 C   0  0  0  0  0  0  0  0  0  0  0  0
    3.0275   -0.1781   -0.3745 C   0  0  0  0  0  0  0  0  0  0  0  0
    1.6965   -0.3689   -0.5449 O   0  0  0  0  0  0  0  0  0  0  0  0
   -0.1128    1.7399    2.1795 H   0  0  0  0  0  0  0  0  0  0  0  0
   -1.8008    1.3902    1.7334 H   0  0  0  0  0  0  0  0  0  0  0  0
   -0.8724    0.2605    2.7347 H   0  0  0  0  0  0  0  0  0  0  0  0
   -0.5641   -0.6665   -1.1696 H   0  0  0  0  0  0  0  0  0  0  0  0
   -2.5564   -0.2280   -2.4822 H   0  0  0  0  0  0  0  0  0  0  0  0
   -5.0031   -0.3967   -2.6709 H   0  0  0  0  0  0  0  0  0  0  0  0
   -5.2946   -0.8388    1.5667 H   0  0  0  0  0  0  0  0  0  0  0  0
   -2.8561   -0.6840    1.7576 H   0  0  0  0  0  0  0  0  0  0  0  0
    4.6150    1.5071    2.1312 H   0  0  0  0  0  0  0  0  0  0  0  0
    6.5445    0.7605    0.7599 H   0  0  0  0  0  0  0  0  0  0  0  0
    6.2166   -0.5469   -1.2739 H   0  0  0  0  0  0  0  0  0  0  0  0
    3.9437   -1.1775   -2.0443 H   0  0  0  0  0  0  0  0  0  0  0  0
  1  2  1  0  0  0  0
  2  3  2  0  0  0  0
  3  4  1  0  0  0  0
  4  5  2  0  0  0  0
  5  6  1  0  0  0  0
  6  7  2  0  0  0  0
  7  8  1  0  0  0  0
  7  9  1  0  0  0  0
  9 10  2  0  0  0  0
  2 11  1  0  0  0  0
 11 12  2  0  0  0  0
 12 13  1  0  0  0  0
 13 14  2  0  0  0  0
 14 15  1  0  0  0  0
 15 16  2  0  0  0  0
 16 17  1  0  0  0  0
 17 18  2  0  0  0  0
 18 19  1  0  0  0  0
 10  4  1  0  0  0  0
 19 11  1  0  0  0  0
 18 13  1  0  0  0  0
  1 20  1  0  0  0  0
  1 21  1  0  0  0  0
  1 22  1  0  0  0  0
  3 23  1  0  0  0  0
  5 24  1  0  0  0  0
  6 25  1  0  0  0  0
  9 26  1  0  0  0  0
 10 27  1  0  0  0  0
 14 28  1  0  0  0  0
 15 29  1  0  0  0  0
 16 30  1  0  0  0  0
 17 31  1  0  0  0  0
M  END
