
  xtb     03212211323D
 energy: -33.430763246017 gnorm: 0.000070209377 xtb: 6.4.1 (afa7bdf)
 21 22  0     0  0            999 V2000
    5.0478    1.9685    0.0560 N   0  0  0  0  0  0  0  0  0  0  0  0
    3.9795    1.5520    0.0443 C   0  0  0  0  0  0  0  0  0  0  0  0
    2.6636    1.0390    0.0298 C   0  0  0  0  0  0  0  0  0  0  0  0
    2.3097   -0.0072    0.8833 C   0  0  0  0  0  0  0  0  0  0  0  0
    1.0248   -0.5048    0.8689 C   0  0  0  0  0  0  0  0  0  0  0  0
    0.0684    0.0269    0.0010 C   0  0  0  0  0  0  0  0  0  0  0  0
   -1.2273   -0.4786   -0.0136 N   0  0  0  0  0  0  0  0  0  0  0  0
   -2.3620    0.2281   -0.3114 C   0  0  0  0  0  0  0  0  0  0  0  0
   -3.4353   -0.6058   -0.2138 C   0  0  0  0  0  0  0  0  0  0  0  0
   -2.9414   -1.8819    0.1420 C   0  0  0  0  0  0  0  0  0  0  0  0
   -1.5892   -1.7693    0.2672 C   0  0  0  0  0  0  0  0  0  0  0  0
    0.4289    1.0723   -0.8522 C   0  0  0  0  0  0  0  0  0  0  0  0
    1.7114    1.5760   -0.8381 C   0  0  0  0  0  0  0  0  0  0  0  0
    3.0458   -0.4173    1.5587 H   0  0  0  0  0  0  0  0  0  0  0  0
    0.7511   -1.2987    1.5462 H   0  0  0  0  0  0  0  0  0  0  0  0
   -2.3273    1.2775   -0.5256 H   0  0  0  0  0  0  0  0  0  0  0  0
   -4.4615   -0.3429   -0.3767 H   0  0  0  0  0  0  0  0  0  0  0  0
   -3.5213   -2.7716    0.2866 H   0  0  0  0  0  0  0  0  0  0  0  0
   -0.8572   -2.5195    0.4901 H   0  0  0  0  0  0  0  0  0  0  0  0
   -0.2969    1.4764   -1.5406 H   0  0  0  0  0  0  0  0  0  0  0  0
    1.9884    2.3811   -1.5022 H   0  0  0  0  0  0  0  0  0  0  0  0
  1  2  3  0  0  0  0
  2  3  1  0  0  0  0
  3  4  2  0  0  0  0
  4  5  1  0  0  0  0
  5  6  2  0  0  0  0
  6  7  1  0  0  0  0
  7  8  1  0  0  0  0
  8  9  2  0  0  0  0
  9 10  1  0  0  0  0
 10 11  2  0  0  0  0
  6 12  1  0  0  0  0
 12 13  2  0  0  0  0
 13  3  1  0  0  0  0
 11  7  1  0  0  0  0
  4 14  1  0  0  0  0
  5 15  1  0  0  0  0
  8 16  1  0  0  0  0
  9 17  1  0  0  0  0
 10 18  1  0  0  0  0
 11 19  1  0  0  0  0
 12 20  1  0  0  0  0
 13 21  1  0  0  0  0
M  END
