
  xtb     03212210523D
 energy: -57.711887045223 gnorm: 0.000608247317 xtb: 6.4.1 (afa7bdf)
 35 35  0     0  0            999 V2000
    6.7449   -1.0757    0.1588 C   0  0  0  0  0  0  0  0  0  0  0  0
    5.7168    0.0241    0.3551 C   0  0  0  0  0  0  0  0  0  0  0  0
    4.4177   -0.4900    0.0386 O   0  0  0  0  0  0  0  0  0  0  0  0
    3.5759    0.2982   -0.6150 C   0  0  0  0  0  0  0  0  0  0  0  0
    3.8078    1.4178   -0.9815 O   0  0  0  0  0  0  0  0  0  0  0  0
    2.2491   -0.4063   -0.8297 C   0  0  0  0  0  0  0  0  0  0  0  0
    1.3371   -0.2607    0.7567 S   0  0  0  0  0  0  0  0  0  0  0  0
   -0.3411   -0.0497    0.2697 C   0  0  0  0  0  0  0  0  0  0  0  0
   -1.0341    0.6590    1.1425 N   0  0  0  0  0  0  0  0  0  0  0  0
   -2.3116    0.9345    0.9564 C   0  0  0  0  0  0  0  0  0  0  0  0
   -2.9620    1.7351    2.0355 C   0  0  0  0  0  0  0  0  0  0  0  0
   -3.0009    0.5222   -0.1969 C   0  0  0  0  0  0  0  0  0  0  0  0
   -4.4455    0.8409   -0.4392 C   0  0  0  0  0  0  0  0  0  0  0  0
   -5.3422   -0.2852    0.0842 C   0  0  0  0  0  0  0  0  0  0  0  0
   -2.2924   -0.2683   -1.1018 C   0  0  0  0  0  0  0  0  0  0  0  0
   -2.9232   -0.7743   -2.2661 C   0  0  0  0  0  0  0  0  0  0  0  0
   -3.4398   -1.1814   -3.2037 N   0  0  0  0  0  0  0  0  0  0  0  0
   -0.9395   -0.5966   -0.8766 C   0  0  0  0  0  0  0  0  0  0  0  0
   -0.3049   -1.4973   -1.7539 C   0  0  0  0  0  0  0  0  0  0  0  0
    0.1801   -2.2650   -2.4551 N   0  0  0  0  0  0  0  0  0  0  0  0
    7.7278   -0.7070    0.4372 H   0  0  0  0  0  0  0  0  0  0  0  0
    6.4971   -1.9325    0.7794 H   0  0  0  0  0  0  0  0  0  0  0  0
    6.7668   -1.3926   -0.8807 H   0  0  0  0  0  0  0  0  0  0  0  0
    5.9197    0.8855   -0.2892 H   0  0  0  0  0  0  0  0  0  0  0  0
    5.6944    0.3568    1.3980 H   0  0  0  0  0  0  0  0  0  0  0  0
    1.6894    0.1064   -1.6084 H   0  0  0  0  0  0  0  0  0  0  0  0
    2.3990   -1.4577   -1.0676 H   0  0  0  0  0  0  0  0  0  0  0  0
   -3.8587    1.2401    2.4014 H   0  0  0  0  0  0  0  0  0  0  0  0
   -3.2440    2.7179    1.6598 H   0  0  0  0  0  0  0  0  0  0  0  0
   -2.2568    1.8597    2.8516 H   0  0  0  0  0  0  0  0  0  0  0  0
   -4.7082    1.7770    0.0543 H   0  0  0  0  0  0  0  0  0  0  0  0
   -4.6188    0.9577   -1.5116 H   0  0  0  0  0  0  0  0  0  0  0  0
   -5.1373   -1.2110   -0.4490 H   0  0  0  0  0  0  0  0  0  0  0  0
   -6.3871   -0.0272   -0.0656 H   0  0  0  0  0  0  0  0  0  0  0  0
   -5.1751   -0.4543    1.1458 H   0  0  0  0  0  0  0  0  0  0  0  0
  1  2  1  0  0  0  0
  2  3  1  0  0  0  0
  3  4  1  0  0  0  0
  4  5  2  0  0  0  0
  4  6  1  0  0  0  0
  6  7  1  0  0  0  0
  7  8  1  0  0  0  0
  8  9  2  0  0  0  0
  9 10  1  0  0  0  0
 10 11  1  0  0  0  0
 10 12  2  0  0  0  0
 12 13  1  0  0  0  0
 13 14  1  0  0  0  0
 12 15  1  0  0  0  0
 15 16  1  0  0  0  0
 16 17  3  0  0  0  0
 15 18  2  0  0  0  0
 18 19  1  0  0  0  0
 19 20  3  0  0  0  0
 18  8  1  0  0  0  0
  1 21  1  0  0  0  0
  1 22  1  0  0  0  0
  1 23  1  0  0  0  0
  2 24  1  0  0  0  0
  2 25  1  0  0  0  0
  6 26  1  0  0  0  0
  6 27  1  0  0  0  0
 11 28  1  0  0  0  0
 11 29  1  0  0  0  0
 11 30  1  0  0  0  0
 13 31  1  0  0  0  0
 13 32  1  0  0  0  0
 14 33  1  0  0  0  0
 14 34  1  0  0  0  0
 14 35  1  0  0  0  0
M  END
