
  xtb     03212211043D
 energy: -54.073311031662 gnorm: 0.000142032434 xtb: 6.4.1 (afa7bdf)
 33 35  0     0  0            999 V2000
    4.9431   -1.4070   -1.2279 C   0  0  0  0  0  0  0  0  0  0  0  0
    3.8431   -0.5187   -0.7367 C   0  0  0  0  0  0  0  0  0  0  0  0
    3.8623    0.8446   -1.0179 C   0  0  0  0  0  0  0  0  0  0  0  0
    2.8617    1.6727   -0.5578 C   0  0  0  0  0  0  0  0  0  0  0  0
    1.8034    1.1545    0.1887 C   0  0  0  0  0  0  0  0  0  0  0  0
    0.7486    2.0765    0.6510 C   0  0  0  0  0  0  0  0  0  0  0  0
    0.8757    3.2823    0.6620 O   0  0  0  0  0  0  0  0  0  0  0  0
   -0.5071    1.4504    1.1567 C   0  0  0  0  0  0  0  0  0  0  0  0
   -1.3637    0.7675    0.3893 C   0  0  0  0  0  0  0  0  0  0  0  0
   -1.1775    0.5077   -1.0748 C   0  0  0  0  0  0  0  0  0  0  0  0
   -0.2751    0.8546   -1.7993 O   0  0  0  0  0  0  0  0  0  0  0  0
   -2.2716   -0.2229   -1.4670 N   0  0  0  0  0  0  0  0  0  0  0  0
   -3.1467   -0.4481   -0.4176 C   0  0  0  0  0  0  0  0  0  0  0  0
   -4.3448   -1.1312   -0.4077 C   0  0  0  0  0  0  0  0  0  0  0  0
   -5.0301   -1.2128    0.7984 C   0  0  0  0  0  0  0  0  0  0  0  0
   -4.5300   -0.6294    1.9523 C   0  0  0  0  0  0  0  0  0  0  0  0
   -3.3242    0.0580    1.9389 C   0  0  0  0  0  0  0  0  0  0  0  0
   -2.6299    0.1483    0.7470 C   0  0  0  0  0  0  0  0  0  0  0  0
    1.7838   -0.2080    0.4797 C   0  0  0  0  0  0  0  0  0  0  0  0
    2.7953   -1.0286    0.0221 C   0  0  0  0  0  0  0  0  0  0  0  0
    4.6637   -2.4549   -1.1534 H   0  0  0  0  0  0  0  0  0  0  0  0
    5.8426   -1.2490   -0.6321 H   0  0  0  0  0  0  0  0  0  0  0  0
    5.1869   -1.1783   -2.2635 H   0  0  0  0  0  0  0  0  0  0  0  0
    4.6714    1.2527   -1.6066 H   0  0  0  0  0  0  0  0  0  0  0  0
    2.8670    2.7296   -0.7770 H   0  0  0  0  0  0  0  0  0  0  0  0
   -0.7428    1.6522    2.1942 H   0  0  0  0  0  0  0  0  0  0  0  0
   -2.4220   -0.5289   -2.4147 H   0  0  0  0  0  0  0  0  0  0  0  0
   -4.7383   -1.5866   -1.3035 H   0  0  0  0  0  0  0  0  0  0  0  0
   -5.9708   -1.7413    0.8344 H   0  0  0  0  0  0  0  0  0  0  0  0
   -5.0871   -0.7102    2.8731 H   0  0  0  0  0  0  0  0  0  0  0  0
   -2.9399    0.5133    2.8387 H   0  0  0  0  0  0  0  0  0  0  0  0
    0.9815   -0.6249    1.0719 H   0  0  0  0  0  0  0  0  0  0  0  0
    2.7714   -2.0844    0.2532 H   0  0  0  0  0  0  0  0  0  0  0  0
  1  2  1  0  0  0  0
  2  3  2  0  0  0  0
  3  4  1  0  0  0  0
  4  5  2  0  0  0  0
  5  6  1  0  0  0  0
  6  7  2  0  0  0  0
  6  8  1  0  0  0  0
  8  9  2  0  0  0  0
  9 10  1  0  0  0  0
 10 11  2  0  0  0  0
 10 12  1  0  0  0  0
 12 13  1  0  0  0  0
 13 14  2  0  0  0  0
 14 15  1  0  0  0  0
 15 16  2  0  0  0  0
 16 17  1  0  0  0  0
 17 18  2  0  0  0  0
  5 19  1  0  0  0  0
 19 20  2  0  0  0  0
 20  2  1  0  0  0  0
 18  9  1  0  0  0  0
 18 13  1  0  0  0  0
  1 21  1  0  0  0  0
  1 22  1  0  0  0  0
  1 23  1  0  0  0  0
  3 24  1  0  0  0  0
  4 25  1  0  0  0  0
  8 26  1  0  0  0  0
 12 27  1  0  0  0  0
 14 28  1  0  0  0  0
 15 29  1  0  0  0  0
 16 30  1  0  0  0  0
 17 31  1  0  0  0  0
 19 32  1  0  0  0  0
 20 33  1  0  0  0  0
M  END
