
  xtb     03212212263D
 energy: -54.336078131276 gnorm: 0.000228950125 xtb: 6.4.1 (afa7bdf)
 35 37  0     0  0            999 V2000
   -3.4348    1.6885    0.0635 C   0  0  0  0  0  0  0  0  0  0  0  0
   -3.0125    0.7066   -1.0325 C   0  0  0  0  0  0  0  0  0  0  0  0
   -2.1120   -0.3456   -0.4792 C   0  0  0  0  0  0  0  0  0  0  0  0
   -2.4493   -1.5888   -0.0524 C   0  0  0  0  0  0  0  0  0  0  0  0
   -3.7742   -2.2631   -0.0508 C   0  0  0  0  0  0  0  0  0  0  0  0
   -1.2552   -2.2715    0.4542 C   0  0  0  0  0  0  0  0  0  0  0  0
   -1.1492   -3.3808    0.9079 O   0  0  0  0  0  0  0  0  0  0  0  0
   -0.1964   -1.3341    0.2998 N   0  0  0  0  0  0  0  0  0  0  0  0
   -0.7004   -0.1577   -0.2677 C   0  0  0  0  0  0  0  0  0  0  0  0
    0.1216    0.8912   -0.5198 C   0  0  0  0  0  0  0  0  0  0  0  0
    1.4857    0.7592   -0.1913 C   0  0  0  0  0  0  0  0  0  0  0  0
    2.5704    1.6146   -0.3122 C   0  0  0  0  0  0  0  0  0  0  0  0
    2.5524    2.9956   -0.8664 C   0  0  0  0  0  0  0  0  0  0  0  0
    3.6855    0.9185    0.1897 C   0  0  0  0  0  0  0  0  0  0  0  0
    3.2872   -0.3294    0.6053 C   0  0  0  0  0  0  0  0  0  0  0  0
    4.1053   -1.4116    1.1991 C   0  0  0  0  0  0  0  0  0  0  0  0
    1.9353   -0.4352    0.3746 N   0  0  0  0  0  0  0  0  0  0  0  0
    1.1246   -1.5424    0.6501 C   0  0  0  0  0  0  0  0  0  0  0  0
    1.5470   -2.5535    1.1384 O   0  0  0  0  0  0  0  0  0  0  0  0
   -2.5633    2.1695    0.5013 H   0  0  0  0  0  0  0  0  0  0  0  0
   -4.0868    2.4549   -0.3480 H   0  0  0  0  0  0  0  0  0  0  0  0
   -3.9691    1.1656    0.8527 H   0  0  0  0  0  0  0  0  0  0  0  0
   -2.4979    1.2495   -1.8279 H   0  0  0  0  0  0  0  0  0  0  0  0
   -3.9001    0.2346   -1.4559 H   0  0  0  0  0  0  0  0  0  0  0  0
   -3.6478   -3.2891    0.2862 H   0  0  0  0  0  0  0  0  0  0  0  0
   -4.2112   -2.2651   -1.0489 H   0  0  0  0  0  0  0  0  0  0  0  0
   -4.4673   -1.7558    0.6198 H   0  0  0  0  0  0  0  0  0  0  0  0
   -0.2389    1.8053   -0.9579 H   0  0  0  0  0  0  0  0  0  0  0  0
    2.2156    2.9897   -1.9028 H   0  0  0  0  0  0  0  0  0  0  0  0
    3.5485    3.4276   -0.8270 H   0  0  0  0  0  0  0  0  0  0  0  0
    1.8738    3.6304   -0.2973 H   0  0  0  0  0  0  0  0  0  0  0  0
    4.6876    1.2974    0.2416 H   0  0  0  0  0  0  0  0  0  0  0  0
    3.7293   -1.6825    2.1846 H   0  0  0  0  0  0  0  0  0  0  0  0
    5.1376   -1.0824    1.2826 H   0  0  0  0  0  0  0  0  0  0  0  0
    4.0591   -2.3102    0.5857 H   0  0  0  0  0  0  0  0  0  0  0  0
  1  2  1  0  0  0  0
  2  3  1  0  0  0  0
  3  4  2  0  0  0  0
  4  5  1  0  0  0  0
  4  6  1  0  0  0  0
  6  7  2  0  0  0  0
  6  8  1  0  0  0  0
  8  9  1  0  0  0  0
  9 10  2  0  0  0  0
 10 11  1  0  0  0  0
 11 12  2  0  0  0  0
 12 13  1  0  0  0  0
 12 14  1  0  0  0  0
 14 15  2  0  0  0  0
 15 16  1  0  0  0  0
 15 17  1  0  0  0  0
 17 18  1  0  0  0  0
 18 19  2  0  0  0  0
  9  3  1  0  0  0  0
 17 11  1  0  0  0  0
 18  8  1  0  0  0  0
  1 20  1  0  0  0  0
  1 21  1  0  0  0  0
  1 22  1  0  0  0  0
  2 23  1  0  0  0  0
  2 24  1  0  0  0  0
  5 25  1  0  0  0  0
  5 26  1  0  0  0  0
  5 27  1  0  0  0  0
 10 28  1  0  0  0  0
 13 29  1  0  0  0  0
 13 30  1  0  0  0  0
 13 31  1  0  0  0  0
 14 32  1  0  0  0  0
 16 33  1  0  0  0  0
 16 34  1  0  0  0  0
 16 35  1  0  0  0  0
M  END
