
  xtb     03212212253D
 energy: -60.350009955520 gnorm: 0.000693948693 xtb: 6.4.1 (afa7bdf)
 37 38  0     0  0            999 V2000
   -5.6196    1.5019    0.5660 C   0  0  0  0  0  0  0  0  0  0  0  0
   -4.9888    0.6916   -0.4463 N   0  0  0  0  0  0  0  0  0  0  0  0
   -5.7982    0.1433   -1.5060 C   0  0  0  0  0  0  0  0  0  0  0  0
   -3.6444    0.4601   -0.4112 C   0  0  0  0  0  0  0  0  0  0  0  0
   -3.0019   -0.2945   -1.4083 C   0  0  0  0  0  0  0  0  0  0  0  0
   -1.6480   -0.5202   -1.3642 C   0  0  0  0  0  0  0  0  0  0  0  0
   -0.8419   -0.0178   -0.3343 C   0  0  0  0  0  0  0  0  0  0  0  0
    0.5712   -0.2889   -0.3517 C   0  0  0  0  0  0  0  0  0  0  0  0
    1.4763    0.0888    0.5725 C   0  0  0  0  0  0  0  0  0  0  0  0
    2.8913   -0.1874    0.5512 C   0  0  0  0  0  0  0  0  0  0  0  0
    3.6734    0.2081    1.6507 C   0  0  0  0  0  0  0  0  0  0  0  0
    5.0207   -0.0378    1.6779 C   0  0  0  0  0  0  0  0  0  0  0  0
    5.6587   -0.6801    0.6140 C   0  0  0  0  0  0  0  0  0  0  0  0
    7.0658   -0.9040    0.7026 N   0  0  0  0  0  4  0  0  0  0  0  0
    7.6130   -0.5848    1.7459 O   0  0  0  0  0  0  0  0  0  0  0  0
    7.6514   -1.3876   -0.2427 O   0  0  0  0  0  1  0  0  0  0  0  0
    4.9020   -1.0812   -0.5028 C   0  0  0  0  0  0  0  0  0  0  0  0
    5.4974   -1.7021   -1.5335 O   0  0  0  0  0  0  0  0  0  0  0  0
    3.5367   -0.8278   -0.5079 C   0  0  0  0  0  0  0  0  0  0  0  0
   -1.4849    0.7324    0.6582 C   0  0  0  0  0  0  0  0  0  0  0  0
   -2.8378    0.9658    0.6244 C   0  0  0  0  0  0  0  0  0  0  0  0
   -5.5206    1.0471    1.5566 H   0  0  0  0  0  0  0  0  0  0  0  0
   -5.1835    2.5048    0.5968 H   0  0  0  0  0  0  0  0  0  0  0  0
   -6.6791    1.6019    0.3442 H   0  0  0  0  0  0  0  0  0  0  0  0
   -5.5020    0.5439   -2.4808 H   0  0  0  0  0  0  0  0  0  0  0  0
   -6.8411    0.3991   -1.3376 H   0  0  0  0  0  0  0  0  0  0  0  0
   -5.7179   -0.9472   -1.5376 H   0  0  0  0  0  0  0  0  0  0  0  0
   -3.5653   -0.7069   -2.2289 H   0  0  0  0  0  0  0  0  0  0  0  0
   -1.1911   -1.1049   -2.1509 H   0  0  0  0  0  0  0  0  0  0  0  0
    0.8992   -0.8648   -1.2078 H   0  0  0  0  0  0  0  0  0  0  0  0
    1.1447    0.6467    1.4371 H   0  0  0  0  0  0  0  0  0  0  0  0
    3.2017    0.7086    2.4823 H   0  0  0  0  0  0  0  0  0  0  0  0
    5.6276    0.2598    2.5194 H   0  0  0  0  0  0  0  0  0  0  0  0
    4.8535   -1.9201   -2.2197 H   0  0  0  0  0  0  0  0  0  0  0  0
    2.9702   -1.1403   -1.3740 H   0  0  0  0  0  0  0  0  0  0  0  0
   -0.9128    1.1451    1.4747 H   0  0  0  0  0  0  0  0  0  0  0  0
   -3.2757    1.5496    1.4171 H   0  0  0  0  0  0  0  0  0  0  0  0
  1  2  1  0  0  0  0
  2  3  1  0  0  0  0
  2  4  1  0  0  0  0
  4  5  2  0  0  0  0
  5  6  1  0  0  0  0
  6  7  2  0  0  0  0
  7  8  1  0  0  0  0
  8  9  2  0  0  0  0
  9 10  1  0  0  0  0
 10 11  2  0  0  0  0
 11 12  1  0  0  0  0
 12 13  2  0  0  0  0
 13 14  1  0  0  0  0
 14 15  2  0  0  0  0
 14 16  1  0  0  0  0
 13 17  1  0  0  0  0
 17 18  1  0  0  0  0
 17 19  2  0  0  0  0
  7 20  1  0  0  0  0
 20 21  2  0  0  0  0
 21  4  1  0  0  0  0
 19 10  1  0  0  0  0
  1 22  1  0  0  0  0
  1 23  1  0  0  0  0
  1 24  1  0  0  0  0
  3 25  1  0  0  0  0
  3 26  1  0  0  0  0
  3 27  1  0  0  0  0
  5 28  1  0  0  0  0
  6 29  1  0  0  0  0
  8 30  1  0  0  0  0
  9 31  1  0  0  0  0
 11 32  1  0  0  0  0
 12 33  1  0  0  0  0
 18 34  1  0  0  0  0
 19 35  1  0  0  0  0
 20 36  1  0  0  0  0
 21 37  1  0  0  0  0
M  CHG  1  14   1
M  CHG  1  16  -1
M  END
