
  xtb     03212211443D
 energy: -118.198259131983 gnorm: 0.000310278376 xtb: 6.4.1 (afa7bdf)
 66 72  0     0  0            999 V2000
    3.7329    0.2739   -1.3192 C   0  0  0  0  0  0  0  0  0  0  0  0
    2.5998    0.1956   -0.8989 C   0  0  0  0  0  0  0  0  0  0  0  0
    1.2811    0.1032   -0.4338 C   0  0  0  0  0  0  0  0  0  0  0  0
    0.6029   -1.1296   -0.4568 C   0  0  0  0  0  0  0  0  0  0  0  0
    1.2479   -2.2845   -0.9196 C   0  0  0  0  0  0  0  0  0  0  0  0
    1.8199   -3.2816   -1.3008 C   0  0  0  0  0  0  0  0  0  0  0  0
    2.4472   -4.4404   -1.7381 C   0  0  0  0  0  0  0  0  0  0  0  0
    3.7741   -4.6252   -2.0333 C   0  0  0  0  0  0  0  0  0  0  0  0
    4.0655   -5.9367   -2.4493 C   0  0  0  0  0  0  0  0  0  0  0  0
    2.9681   -6.7393   -2.4690 C   0  0  0  0  0  0  0  0  0  0  0  0
    1.5439   -5.9147   -1.9770 S   0  0  0  0  0  0  0  0  0  0  0  0
   -0.7276   -1.2100   -0.0026 C   0  0  0  0  0  0  0  0  0  0  0  0
   -1.4026   -2.4376   -0.0223 C   0  0  0  0  0  0  0  0  0  0  0  0
   -1.9641   -3.5104   -0.0490 C   0  0  0  0  0  0  0  0  0  0  0  0
   -2.6285   -4.7289   -0.0655 C   0  0  0  0  0  0  0  0  0  0  0  0
   -2.1627   -5.9353   -0.5252 C   0  0  0  0  0  0  0  0  0  0  0  0
   -3.1049   -6.9695   -0.3871 C   0  0  0  0  0  0  0  0  0  0  0  0
   -4.2717   -6.5485    0.1717 C   0  0  0  0  0  0  0  0  0  0  0  0
   -4.2564   -4.8725    0.5472 S   0  0  0  0  0  0  0  0  0  0  0  0
   -1.3775   -0.0583    0.4796 C   0  0  0  0  0  0  0  0  0  0  0  0
   -2.6961   -0.1439    0.9466 C   0  0  0  0  0  0  0  0  0  0  0  0
   -3.8281   -0.2034    1.3727 C   0  0  0  0  0  0  0  0  0  0  0  0
   -5.1278   -0.2893    1.8536 C   0  0  0  0  0  0  0  0  0  0  0  0
   -5.8131    0.6410    2.5944 C   0  0  0  0  0  0  0  0  0  0  0  0
   -7.1179    0.2278    2.9157 C   0  0  0  0  0  0  0  0  0  0  0  0
   -7.4157   -1.0040    2.4210 C   0  0  0  0  0  0  0  0  0  0  0  0
   -6.1092   -1.6992    1.5493 S   0  0  0  0  0  0  0  0  0  0  0  0
   -0.6993    1.1749    0.5024 C   0  0  0  0  0  0  0  0  0  0  0  0
   -1.3493    2.3267    0.9659 C   0  0  0  0  0  0  0  0  0  0  0  0
   -1.9333    3.3160    1.3491 C   0  0  0  0  0  0  0  0  0  0  0  0
   -2.5836    4.4611    1.7891 C   0  0  0  0  0  0  0  0  0  0  0  0
   -3.9278    4.6345    2.0056 C   0  0  0  0  0  0  0  0  0  0  0  0
   -4.2455    5.9300    2.4495 C   0  0  0  0  0  0  0  0  0  0  0  0
   -3.1502    6.7282    2.5680 C   0  0  0  0  0  0  0  0  0  0  0  0
   -1.6960    5.9221    2.1374 S   0  0  0  0  0  0  0  0  0  0  0  0
    0.6306    1.2554    0.0481 C   0  0  0  0  0  0  0  0  0  0  0  0
    1.3024    2.4849    0.0677 C   0  0  0  0  0  0  0  0  0  0  0  0
    1.9021    3.5371    0.0731 C   0  0  0  0  0  0  0  0  0  0  0  0
    2.5685    4.7544    0.0890 C   0  0  0  0  0  0  0  0  0  0  0  0
    3.8634    5.0102   -0.2876 C   0  0  0  0  0  0  0  0  0  0  0  0
    4.2139    6.3639   -0.1422 C   0  0  0  0  0  0  0  0  0  0  0  0
    3.1934    7.1239    0.3394 C   0  0  0  0  0  0  0  0  0  0  0  0
    1.7699    6.2083    0.6319 S   0  0  0  0  0  0  0  0  0  0  0  0
    5.0333    0.3931   -1.7908 C   0  0  0  0  0  0  0  0  0  0  0  0
    5.7759   -0.5356   -2.4747 C   0  0  0  0  0  0  0  0  0  0  0  0
    7.0636   -0.0744   -2.8022 C   0  0  0  0  0  0  0  0  0  0  0  0
    7.2949    1.1938   -2.3699 C   0  0  0  0  0  0  0  0  0  0  0  0
    5.9423    1.8638   -1.5500 S   0  0  0  0  0  0  0  0  0  0  0  0
    4.5031   -3.8403   -1.9409 H   0  0  0  0  0  0  0  0  0  0  0  0
    5.0505   -6.2709   -2.7229 H   0  0  0  0  0  0  0  0  0  0  0  0
    2.9051   -7.7735   -2.7440 H   0  0  0  0  0  0  0  0  0  0  0  0
   -1.1798   -6.0573   -0.9438 H   0  0  0  0  0  0  0  0  0  0  0  0
   -2.9237   -7.9853   -0.6905 H   0  0  0  0  0  0  0  0  0  0  0  0
   -5.1494   -7.1246    0.3890 H   0  0  0  0  0  0  0  0  0  0  0  0
   -5.3781    1.5766    2.8978 H   0  0  0  0  0  0  0  0  0  0  0  0
   -7.8072    0.8205    3.4906 H   0  0  0  0  0  0  0  0  0  0  0  0
   -8.3319   -1.5525    2.5156 H   0  0  0  0  0  0  0  0  0  0  0  0
   -4.6485    3.8544    1.8368 H   0  0  0  0  0  0  0  0  0  0  0  0
   -5.2460    6.2564    2.6715 H   0  0  0  0  0  0  0  0  0  0  0  0
   -3.1068    7.7514    2.8849 H   0  0  0  0  0  0  0  0  0  0  0  0
    4.5249    4.2446   -0.6515 H   0  0  0  0  0  0  0  0  0  0  0  0
    5.1847    6.7576   -0.3855 H   0  0  0  0  0  0  0  0  0  0  0  0
    3.1888    8.1764    0.5435 H   0  0  0  0  0  0  0  0  0  0  0  0
    5.3939   -1.5067   -2.7339 H   0  0  0  0  0  0  0  0  0  0  0  0
    7.7891   -0.6607   -3.3376 H   0  0  0  0  0  0  0  0  0  0  0  0
    8.1830    1.7835   -2.4823 H   0  0  0  0  0  0  0  0  0  0  0  0
  1  2  3  0  0  0  0
  2  3  1  0  0  0  0
  3  4  2  0  0  0  0
  4  5  1  0  0  0  0
  5  6  3  0  0  0  0
  6  7  1  0  0  0  0
  7  8  2  0  0  0  0
  8  9  1  0  0  0  0
  9 10  2  0  0  0  0
 10 11  1  0  0  0  0
  4 12  1  0  0  0  0
 12 13  1  0  0  0  0
 13 14  3  0  0  0  0
 14 15  1  0  0  0  0
 15 16  2  0  0  0  0
 16 17  1  0  0  0  0
 17 18  2  0  0  0  0
 18 19  1  0  0  0  0
 12 20  2  0  0  0  0
 20 21  1  0  0  0  0
 21 22  3  0  0  0  0
 22 23  1  0  0  0  0
 23 24  2  0  0  0  0
 24 25  1  0  0  0  0
 25 26  2  0  0  0  0
 26 27  1  0  0  0  0
 20 28  1  0  0  0  0
 28 29  1  0  0  0  0
 29 30  3  0  0  0  0
 30 31  1  0  0  0  0
 31 32  2  0  0  0  0
 32 33  1  0  0  0  0
 33 34  2  0  0  0  0
 34 35  1  0  0  0  0
 28 36  2  0  0  0  0
 36 37  1  0  0  0  0
 37 38  3  0  0  0  0
 38 39  1  0  0  0  0
 39 40  2  0  0  0  0
 40 41  1  0  0  0  0
 41 42  2  0  0  0  0
 42 43  1  0  0  0  0
  1 44  1  0  0  0  0
 44 45  2  0  0  0  0
 45 46  1  0  0  0  0
 46 47  2  0  0  0  0
 47 48  1  0  0  0  0
 36  3  1  0  0  0  0
 43 39  1  0  0  0  0
 48 44  1  0  0  0  0
 11  7  1  0  0  0  0
 19 15  1  0  0  0  0
 27 23  1  0  0  0  0
 35 31  1  0  0  0  0
  8 49  1  0  0  0  0
  9 50  1  0  0  0  0
 10 51  1  0  0  0  0
 16 52  1  0  0  0  0
 17 53  1  0  0  0  0
 18 54  1  0  0  0  0
 24 55  1  0  0  0  0
 25 56  1  0  0  0  0
 26 57  1  0  0  0  0
 32 58  1  0  0  0  0
 33 59  1  0  0  0  0
 34 60  1  0  0  0  0
 40 61  1  0  0  0  0
 41 62  1  0  0  0  0
 42 63  1  0  0  0  0
 45 64  1  0  0  0  0
 46 65  1  0  0  0  0
 47 66  1  0  0  0  0
M  END
