
  xtb     03212212243D
 energy: -55.122938210905 gnorm: 0.000147332416 xtb: 6.4.1 (afa7bdf)
 30 32  0     0  0            999 V2000
   -1.7819   -2.7777   -0.7115 O   0  0  0  0  0  0  0  0  0  0  0  0
   -1.5779   -1.6177   -0.3832 C   0  0  0  0  0  0  0  0  0  0  0  0
   -0.2502   -1.0469   -0.3534 C   0  0  0  0  0  0  0  0  0  0  0  0
   -0.0011    0.2435   -0.0147 C   0  0  0  0  0  0  0  0  0  0  0  0
    1.2048    0.8637    0.0360 N   0  0  0  0  0  0  0  0  0  0  0  0
    2.4908    0.3620   -0.0407 C   0  0  0  0  0  0  0  0  0  0  0  0
    2.8603   -0.9227    0.3569 C   0  0  0  0  0  0  0  0  0  0  0  0
    4.1778   -1.3341    0.2682 C   0  0  0  0  0  0  0  0  0  0  0  0
    5.1594   -0.4799   -0.2051 C   0  0  0  0  0  0  0  0  0  0  0  0
    4.8244    0.8122   -0.5768 C   0  0  0  0  0  0  0  0  0  0  0  0
    3.5097    1.2123   -0.4871 C   0  0  0  0  0  0  0  0  0  0  0  0
    3.1755    2.4763   -0.8393 F   0  0  0  0  0  0  0  0  0  0  0  0
   -1.1146    1.1908    0.3011 C   0  0  0  0  0  0  0  0  0  0  0  0
   -0.8693    2.3636    0.5233 O   0  0  0  0  0  0  0  0  0  0  0  0
   -2.4681    0.6271    0.3248 C   0  0  0  0  0  0  0  0  0  0  0  0
   -3.5420    1.4472    0.6669 C   0  0  0  0  0  0  0  0  0  0  0  0
   -4.8276    0.9389    0.6978 C   0  0  0  0  0  0  0  0  0  0  0  0
   -5.0528   -0.3927    0.3825 C   0  0  0  0  0  0  0  0  0  0  0  0
   -3.9926   -1.2139    0.0369 C   0  0  0  0  0  0  0  0  0  0  0  0
   -2.6958   -0.7172    0.0061 C   0  0  0  0  0  0  0  0  0  0  0  0
    0.5462   -1.7104   -0.6538 H   0  0  0  0  0  0  0  0  0  0  0  0
    1.1191    1.8778    0.1106 H   0  0  0  0  0  0  0  0  0  0  0  0
    2.1185   -1.5863    0.7687 H   0  0  0  0  0  0  0  0  0  0  0  0
    4.4393   -2.3331    0.5811 H   0  0  0  0  0  0  0  0  0  0  0  0
    6.1834   -0.8102   -0.2754 H   0  0  0  0  0  0  0  0  0  0  0  0
    5.5653    1.5092   -0.9348 H   0  0  0  0  0  0  0  0  0  0  0  0
   -3.3434    2.4812    0.9067 H   0  0  0  0  0  0  0  0  0  0  0  0
   -5.6542    1.5794    0.9665 H   0  0  0  0  0  0  0  0  0  0  0  0
   -6.0565   -0.7906    0.4044 H   0  0  0  0  0  0  0  0  0  0  0  0
   -4.1471   -2.2522   -0.2169 H   0  0  0  0  0  0  0  0  0  0  0  0
  1  2  2  0  0  0  0
  2  3  1  0  0  0  0
  3  4  2  0  0  0  0
  4  5  1  0  0  0  0
  5  6  1  0  0  0  0
  6  7  2  0  0  0  0
  7  8  1  0  0  0  0
  8  9  2  0  0  0  0
  9 10  1  0  0  0  0
 10 11  2  0  0  0  0
 11 12  1  0  0  0  0
  4 13  1  0  0  0  0
 13 14  2  0  0  0  0
 13 15  1  0  0  0  0
 15 16  2  0  0  0  0
 16 17  1  0  0  0  0
 17 18  2  0  0  0  0
 18 19  1  0  0  0  0
 19 20  2  0  0  0  0
 20  2  1  0  0  0  0
 11  6  1  0  0  0  0
 20 15  1  0  0  0  0
  3 21  1  0  0  0  0
  5 22  1  0  0  0  0
  7 23  1  0  0  0  0
  8 24  1  0  0  0  0
  9 25  1  0  0  0  0
 10 26  1  0  0  0  0
 16 27  1  0  0  0  0
 17 28  1  0  0  0  0
 18 29  1  0  0  0  0
 19 30  1  0  0  0  0
M  END
