
  xtb     03212210393D
 energy: -152.392062031654 gnorm: 0.000159415152 xtb: 6.4.1 (afa7bdf)
 85 92  0     0  0            999 V2000
    4.6220    6.7199    1.5478 C   0  0  0  0  0  0  0  0  0  0  0  0
    3.9565    6.8170    0.1738 C   0  0  0  0  0  0  0  0  0  0  0  0
    2.5129    6.7653    0.2527 N   0  0  0  0  0  0  0  0  0  0  0  0
    1.8468    8.0444    0.3718 C   0  0  0  0  0  0  0  0  0  0  0  0
    1.4672    8.6343   -0.9875 C   0  0  0  0  0  0  0  0  0  0  0  0
    1.8259    5.5892    0.2251 C   0  0  0  0  0  0  0  0  0  0  0  0
    2.4877    4.3462    0.2880 C   0  0  0  0  0  0  0  0  0  0  0  0
    1.7937    3.1628    0.2582 C   0  0  0  0  0  0  0  0  0  0  0  0
    0.3987    3.1478    0.1695 C   0  0  0  0  0  0  0  0  0  0  0  0
   -0.3321    1.9055    0.1419 C   0  0  0  0  0  0  0  0  0  0  0  0
   -1.6624    1.9455    0.0907 N   0  0  0  0  0  0  0  0  0  0  0  0
   -2.2796    0.7755    0.0722 C   0  0  0  0  0  0  0  0  0  0  0  0
   -3.6009    0.8848    0.0082 O   0  0  0  0  0  0  0  0  0  0  0  0
   -4.5070   -0.1446   -0.0025 C   0  0  0  0  0  0  0  0  0  0  0  0
   -5.8265    0.2647   -0.2166 C   0  0  0  0  0  0  0  0  0  0  0  0
   -6.8461   -0.6567   -0.2394 C   0  0  0  0  0  0  0  0  0  0  0  0
   -6.5780   -2.0160   -0.0463 C   0  0  0  0  0  0  0  0  0  0  0  0
   -7.6829   -2.9506   -0.0808 C   0  0  0  0  0  0  0  0  0  0  0  0
   -8.9260   -2.6082   -0.2947 N   0  0  0  0  0  0  0  0  0  0  0  0
   -9.6547   -3.7598   -0.2508 C   0  0  0  0  0  0  0  0  0  0  0  0
  -11.0157   -3.9690   -0.4128 C   0  0  0  0  0  0  0  0  0  0  0  0
  -11.4641   -5.2770   -0.3108 C   0  0  0  0  0  0  0  0  0  0  0  0
  -12.8673   -5.5425   -0.4722 N   0  0  0  0  0  4  0  0  0  0  0  0
  -13.6005   -4.6013   -0.6943 O   0  0  0  0  0  0  0  0  0  0  0  0
  -13.2424   -6.6941   -0.3783 O   0  0  0  0  0  1  0  0  0  0  0  0
  -10.6071   -6.3580   -0.0565 C   0  0  0  0  0  0  0  0  0  0  0  0
   -9.2547   -6.1624    0.1057 C   0  0  0  0  0  0  0  0  0  0  0  0
   -8.7874   -4.8588    0.0064 C   0  0  0  0  0  0  0  0  0  0  0  0
   -7.5454   -4.3100    0.1085 N   0  0  0  0  0  0  0  0  0  0  0  0
   -5.2598   -2.4130    0.1705 C   0  0  0  0  0  0  0  0  0  0  0  0
   -4.2290   -1.4922    0.1941 C   0  0  0  0  0  0  0  0  0  0  0  0
   -1.6731   -0.4049    0.0992 N   0  0  0  0  0  0  0  0  0  0  0  0
   -0.3458   -0.3408    0.1416 C   0  0  0  0  0  0  0  0  0  0  0  0
    0.2407   -1.5369    0.2036 O   0  0  0  0  0  0  0  0  0  0  0  0
    1.6039   -1.6799    0.0984 C   0  0  0  0  0  0  0  0  0  0  0  0
    2.3993   -0.9102   -0.7416 C   0  0  0  0  0  0  0  0  0  0  0  0
    3.7533   -1.1676   -0.8288 C   0  0  0  0  0  0  0  0  0  0  0  0
    4.3346   -2.1983   -0.0906 C   0  0  0  0  0  0  0  0  0  0  0  0
    5.7485   -2.5048   -0.1538 C   0  0  0  0  0  0  0  0  0  0  0  0
    6.3223   -3.4592    0.5301 N   0  0  0  0  0  0  0  0  0  0  0  0
    7.6439   -3.4308    0.1956 C   0  0  0  0  0  0  0  0  0  0  0  0
    8.6978   -4.2221    0.6267 C   0  0  0  0  0  0  0  0  0  0  0  0
    9.9470   -3.9443    0.0940 C   0  0  0  0  0  0  0  0  0  0  0  0
   11.0707   -4.7382    0.5118 N   0  0  0  0  0  4  0  0  0  0  0  0
   12.1575   -4.4787    0.0357 O   0  0  0  0  0  0  0  0  0  0  0  0
   10.8706   -5.6234    1.3170 O   0  0  0  0  0  1  0  0  0  0  0  0
   10.1668   -2.9193   -0.8381 C   0  0  0  0  0  0  0  0  0  0  0  0
    9.1288   -2.1275   -1.2729 C   0  0  0  0  0  0  0  0  0  0  0  0
    7.8701   -2.3911   -0.7496 C   0  0  0  0  0  0  0  0  0  0  0  0
    6.6478   -1.8239   -0.9476 N   0  0  0  0  0  0  0  0  0  0  0  0
    3.5208   -2.9749    0.7391 C   0  0  0  0  0  0  0  0  0  0  0  0
    2.1712   -2.7203    0.8322 C   0  0  0  0  0  0  0  0  0  0  0  0
    0.3679    0.7618    0.1637 N   0  0  0  0  0  0  0  0  0  0  0  0
   -0.2712    4.3736    0.1096 C   0  0  0  0  0  0  0  0  0  0  0  0
    0.4195    5.5583    0.1322 C   0  0  0  0  0  0  0  0  0  0  0  0
    4.3567    5.7868    2.0377 H   0  0  0  0  0  0  0  0  0  0  0  0
    5.7027    6.7674    1.4434 H   0  0  0  0  0  0  0  0  0  0  0  0
    4.2995    7.5404    2.1842 H   0  0  0  0  0  0  0  0  0  0  0  0
    4.2332    7.7655   -0.2945 H   0  0  0  0  0  0  0  0  0  0  0  0
    4.3170    6.0181   -0.4782 H   0  0  0  0  0  0  0  0  0  0  0  0
    0.9590    7.9389    0.9991 H   0  0  0  0  0  0  0  0  0  0  0  0
    2.5260    8.7301    0.8858 H   0  0  0  0  0  0  0  0  0  0  0  0
    2.3544    8.7811   -1.5991 H   0  0  0  0  0  0  0  0  0  0  0  0
    0.7940    7.9682   -1.5203 H   0  0  0  0  0  0  0  0  0  0  0  0
    0.9771    9.5949   -0.8531 H   0  0  0  0  0  0  0  0  0  0  0  0
    3.5606    4.3032    0.3775 H   0  0  0  0  0  0  0  0  0  0  0  0
    2.3189    2.2218    0.3174 H   0  0  0  0  0  0  0  0  0  0  0  0
   -6.0202    1.3155   -0.3625 H   0  0  0  0  0  0  0  0  0  0  0  0
   -7.8678   -0.3562   -0.4055 H   0  0  0  0  0  0  0  0  0  0  0  0
  -11.7001   -3.1601   -0.6089 H   0  0  0  0  0  0  0  0  0  0  0  0
  -11.0371   -7.3453    0.0081 H   0  0  0  0  0  0  0  0  0  0  0  0
   -8.5886   -6.9882    0.3015 H   0  0  0  0  0  0  0  0  0  0  0  0
   -6.6900   -4.8070    0.2890 H   0  0  0  0  0  0  0  0  0  0  0  0
   -5.0126   -3.4531    0.3249 H   0  0  0  0  0  0  0  0  0  0  0  0
   -3.2150   -1.8146    0.3573 H   0  0  0  0  0  0  0  0  0  0  0  0
    1.9613   -0.1138   -1.3206 H   0  0  0  0  0  0  0  0  0  0  0  0
    4.3484   -0.5528   -1.4881 H   0  0  0  0  0  0  0  0  0  0  0  0
    8.5623   -5.0174    1.3412 H   0  0  0  0  0  0  0  0  0  0  0  0
   11.1705   -2.7696   -1.2040 H   0  0  0  0  0  0  0  0  0  0  0  0
    9.2888   -1.3373   -1.9898 H   0  0  0  0  0  0  0  0  0  0  0  0
    6.4434   -1.0560   -1.5639 H   0  0  0  0  0  0  0  0  0  0  0  0
    3.9788   -3.7720    1.3018 H   0  0  0  0  0  0  0  0  0  0  0  0
    1.5346   -3.3149    1.4679 H   0  0  0  0  0  0  0  0  0  0  0  0
   -1.3471    4.3662    0.0368 H   0  0  0  0  0  0  0  0  0  0  0  0
   -0.1427    6.4748    0.0655 H   0  0  0  0  0  0  0  0  0  0  0  0
  1  2  1  0  0  0  0
  2  3  1  0  0  0  0
  3  4  1  0  0  0  0
  4  5  1  0  0  0  0
  3  6  1  0  0  0  0
  6  7  2  0  0  0  0
  7  8  1  0  0  0  0
  8  9  2  0  0  0  0
  9 10  1  0  0  0  0
 10 11  2  0  0  0  0
 11 12  1  0  0  0  0
 12 13  1  0  0  0  0
 13 14  1  0  0  0  0
 14 15  2  0  0  0  0
 15 16  1  0  0  0  0
 16 17  2  0  0  0  0
 17 18  1  0  0  0  0
 18 19  2  0  0  0  0
 19 20  1  0  0  0  0
 20 21  2  0  0  0  0
 21 22  1  0  0  0  0
 22 23  1  0  0  0  0
 23 24  2  0  0  0  0
 23 25  1  0  0  0  0
 22 26  2  0  0  0  0
 26 27  1  0  0  0  0
 27 28  2  0  0  0  0
 28 29  1  0  0  0  0
 17 30  1  0  0  0  0
 30 31  2  0  0  0  0
 12 32  2  0  0  0  0
 32 33  1  0  0  0  0
 33 34  1  0  0  0  0
 34 35  1  0  0  0  0
 35 36  2  0  0  0  0
 36 37  1  0  0  0  0
 37 38  2  0  0  0  0
 38 39  1  0  0  0  0
 39 40  2  0  0  0  0
 40 41  1  0  0  0  0
 41 42  2  0  0  0  0
 42 43  1  0  0  0  0
 43 44  1  0  0  0  0
 44 45  2  0  0  0  0
 44 46  1  0  0  0  0
 43 47  2  0  0  0  0
 47 48  1  0  0  0  0
 48 49  2  0  0  0  0
 49 50  1  0  0  0  0
 38 51  1  0  0  0  0
 51 52  2  0  0  0  0
 33 53  2  0  0  0  0
  9 54  1  0  0  0  0
 54 55  2  0  0  0  0
 55  6  1  0  0  0  0
 53 10  1  0  0  0  0
 31 14  1  0  0  0  0
 52 35  1  0  0  0  0
 29 18  1  0  0  0  0
 50 39  1  0  0  0  0
 28 20  1  0  0  0  0
 49 41  1  0  0  0  0
  1 56  1  0  0  0  0
  1 57  1  0  0  0  0
  1 58  1  0  0  0  0
  2 59  1  0  0  0  0
  2 60  1  0  0  0  0
  4 61  1  0  0  0  0
  4 62  1  0  0  0  0
  5 63  1  0  0  0  0
  5 64  1  0  0  0  0
  5 65  1  0  0  0  0
  7 66  1  0  0  0  0
  8 67  1  0  0  0  0
 15 68  1  0  0  0  0
 16 69  1  0  0  0  0
 21 70  1  0  0  0  0
 26 71  1  0  0  0  0
 27 72  1  0  0  0  0
 29 73  1  0  0  0  0
 30 74  1  0  0  0  0
 31 75  1  0  0  0  0
 36 76  1  0  0  0  0
 37 77  1  0  0  0  0
 42 78  1  0  0  0  0
 47 79  1  0  0  0  0
 48 80  1  0  0  0  0
 50 81  1  0  0  0  0
 51 82  1  0  0  0  0
 52 83  1  0  0  0  0
 54 84  1  0  0  0  0
 55 85  1  0  0  0  0
M  CHG  1  23   1
M  CHG  1  25  -1
M  CHG  1  44   1
M  CHG  1  46  -1
M  END
