
  xtb     03212212043D
 energy: -73.215747471364 gnorm: 0.000255804776 xtb: 6.4.1 (afa7bdf)
 41 45  0     0  0            999 V2000
    1.8639   -3.1682    0.6411 F   0  0  0  0  0  0  0  0  0  0  0  0
    1.3858   -2.3506   -0.3481 B   0  0  0  0  0  4  0  0  0  0  0  0
    1.7345   -2.8300   -1.5864 F   0  0  0  0  0  0  0  0  0  0  0  0
   -0.0730   -2.2336   -0.2454 O   0  0  0  0  0  0  0  0  0  0  0  0
   -0.7362   -1.1228   -0.1007 C   0  0  0  0  0  0  0  0  0  0  0  0
   -2.1984   -1.2913   -0.0391 C   0  0  0  0  0  0  0  0  0  0  0  0
   -2.7967   -2.2370   -0.8704 C   0  0  0  0  0  0  0  0  0  0  0  0
   -4.1647   -2.4285   -0.8360 C   0  0  0  0  0  0  0  0  0  0  0  0
   -4.9465   -1.6940    0.0407 C   0  0  0  0  0  0  0  0  0  0  0  0
   -4.3535   -0.7740    0.8906 C   0  0  0  0  0  0  0  0  0  0  0  0
   -2.9872   -0.5693    0.8545 C   0  0  0  0  0  0  0  0  0  0  0  0
   -0.1317    0.1222   -0.0104 C   0  0  0  0  0  0  0  0  0  0  0  0
   -0.8915    1.3876    0.0329 C   0  0  0  0  0  0  0  0  0  0  0  0
   -0.6743    2.3158    1.0464 C   0  0  0  0  0  0  0  0  0  0  0  0
   -1.3758    3.5081    1.0641 C   0  0  0  0  0  0  0  0  0  0  0  0
   -2.2989    3.7871    0.0713 C   0  0  0  0  0  0  0  0  0  0  0  0
   -2.5180    2.8688   -0.9426 C   0  0  0  0  0  0  0  0  0  0  0  0
   -1.8180    1.6776   -0.9650 C   0  0  0  0  0  0  0  0  0  0  0  0
    1.2751    0.1648   -0.0494 C   0  0  0  0  0  0  0  0  0  0  0  0
    2.2038    1.6364    0.0272 S   0  0  0  0  0  0  0  0  0  0  0  0
    3.6765    0.7056   -0.1178 C   0  0  0  0  0  0  0  0  0  0  0  0
    4.9841    1.1577   -0.1387 C   0  0  0  0  0  0  0  0  0  0  0  0
    5.9924    0.2200   -0.2628 C   0  0  0  0  0  0  0  0  0  0  0  0
    5.7000   -1.1378   -0.3643 C   0  0  0  0  0  0  0  0  0  0  0  0
    4.3978   -1.5941   -0.3433 C   0  0  0  0  0  0  0  0  0  0  0  0
    3.3749   -0.6610   -0.2171 C   0  0  0  0  0  0  0  0  0  0  0  0
    2.0278   -0.9183   -0.1763 N   0  0  0  0  0  4  0  0  0  0  0  0
   -2.1748   -2.8070   -1.5434 H   0  0  0  0  0  0  0  0  0  0  0  0
   -4.6218   -3.1553   -1.4906 H   0  0  0  0  0  0  0  0  0  0  0  0
   -6.0153   -1.8452    0.0696 H   0  0  0  0  0  0  0  0  0  0  0  0
   -4.9584   -0.2154    1.5891 H   0  0  0  0  0  0  0  0  0  0  0  0
   -2.5293    0.1314    1.5348 H   0  0  0  0  0  0  0  0  0  0  0  0
    0.0306    2.0942    1.8345 H   0  0  0  0  0  0  0  0  0  0  0  0
   -1.2028    4.2189    1.8584 H   0  0  0  0  0  0  0  0  0  0  0  0
   -2.8463    4.7176    0.0868 H   0  0  0  0  0  0  0  0  0  0  0  0
   -3.2342    3.0838   -1.7217 H   0  0  0  0  0  0  0  0  0  0  0  0
   -1.9826    0.9638   -1.7586 H   0  0  0  0  0  0  0  0  0  0  0  0
    5.2009    2.2110   -0.0608 H   0  0  0  0  0  0  0  0  0  0  0  0
    7.0202    0.5479   -0.2816 H   0  0  0  0  0  0  0  0  0  0  0  0
    6.5072   -1.8470   -0.4612 H   0  0  0  0  0  0  0  0  0  0  0  0
    4.1544   -2.6402   -0.4211 H   0  0  0  0  0  0  0  0  0  0  0  0
  1  2  1  0  0  0  0
  2  3  1  0  0  0  0
  2  4  1  0  0  0  0
  4  5  1  0  0  0  0
  5  6  1  0  0  0  0
  6  7  2  0  0  0  0
  7  8  1  0  0  0  0
  8  9  2  0  0  0  0
  9 10  1  0  0  0  0
 10 11  2  0  0  0  0
  5 12  2  0  0  0  0
 12 13  1  0  0  0  0
 13 14  2  0  0  0  0
 14 15  1  0  0  0  0
 15 16  2  0  0  0  0
 16 17  1  0  0  0  0
 17 18  2  0  0  0  0
 12 19  1  0  0  0  0
 19 20  1  0  0  0  0
 20 21  1  0  0  0  0
 21 22  2  0  0  0  0
 22 23  1  0  0  0  0
 23 24  2  0  0  0  0
 24 25  1  0  0  0  0
 25 26  2  0  0  0  0
 26 27  1  0  0  0  0
 27  2  1  0  0  0  0
 11  6  1  0  0  0  0
 18 13  1  0  0  0  0
 27 19  2  0  0  0  0
 26 21  1  0  0  0  0
  7 28  1  0  0  0  0
  8 29  1  0  0  0  0
  9 30  1  0  0  0  0
 10 31  1  0  0  0  0
 11 32  1  0  0  0  0
 14 33  1  0  0  0  0
 15 34  1  0  0  0  0
 16 35  1  0  0  0  0
 17 36  1  0  0  0  0
 18 37  1  0  0  0  0
 22 38  1  0  0  0  0
 23 39  1  0  0  0  0
 24 40  1  0  0  0  0
 25 41  1  0  0  0  0
M  CHG  1   2  -1
M  CHG  1  27   1
M  END
