
  xtb     03212212183D
 energy: -44.701516350250 gnorm: 0.000126493638 xtb: 6.4.1 (afa7bdf)
 28 30  0     0  0            999 V2000
    1.1951   -0.4471    0.1022 C   0  0  0  0  0  0  0  0  0  0  0  0
    0.4698    0.6612   -0.1219 C   0  0  0  0  0  0  0  0  0  0  0  0
   -0.9610    0.6695   -0.1422 C   0  0  0  0  0  0  0  0  0  0  0  0
   -1.6932    1.7213   -0.3555 N   0  0  0  0  0  0  0  0  0  0  0  0
   -2.9885    1.2840   -0.2877 C   0  0  0  0  0  0  0  0  0  0  0  0
   -4.1988    1.9510   -0.4327 C   0  0  0  0  0  0  0  0  0  0  0  0
   -5.3509    1.2035   -0.3031 C   0  0  0  0  0  0  0  0  0  0  0  0
   -5.3144   -0.1662   -0.0374 C   0  0  0  0  0  0  0  0  0  0  0  0
   -4.1207   -0.8490    0.1105 C   0  0  0  0  0  0  0  0  0  0  0  0
   -2.9656   -0.1028   -0.0189 C   0  0  0  0  0  0  0  0  0  0  0  0
   -1.6678   -0.4813    0.0713 O   0  0  0  0  0  0  0  0  0  0  0  0
    2.6393   -0.5407    0.1392 C   0  0  0  0  0  0  0  0  0  0  0  0
    3.4797    0.5585   -0.0626 C   0  0  0  0  0  0  0  0  0  0  0  0
    4.8517    0.4139   -0.0166 C   0  0  0  0  0  0  0  0  0  0  0  0
    5.4189   -0.8266    0.2310 C   0  0  0  0  0  0  0  0  0  0  0  0
    4.6007   -1.9262    0.4332 C   0  0  0  0  0  0  0  0  0  0  0  0
    3.2279   -1.7850    0.3879 C   0  0  0  0  0  0  0  0  0  0  0  0
    0.6641   -1.3753    0.2750 H   0  0  0  0  0  0  0  0  0  0  0  0
    0.9119    1.6278   -0.3032 H   0  0  0  0  0  0  0  0  0  0  0  0
   -4.2215    3.0087   -0.6378 H   0  0  0  0  0  0  0  0  0  0  0  0
   -6.3106    1.6870   -0.4093 H   0  0  0  0  0  0  0  0  0  0  0  0
   -6.2438   -0.7075    0.0552 H   0  0  0  0  0  0  0  0  0  0  0  0
   -4.0878   -1.9070    0.3157 H   0  0  0  0  0  0  0  0  0  0  0  0
    3.0554    1.5311   -0.2565 H   0  0  0  0  0  0  0  0  0  0  0  0
    5.4864    1.2736   -0.1748 H   0  0  0  0  0  0  0  0  0  0  0  0
    6.4928   -0.9348    0.2660 H   0  0  0  0  0  0  0  0  0  0  0  0
    5.0365   -2.8956    0.6266 H   0  0  0  0  0  0  0  0  0  0  0  0
    2.5943   -2.6462    0.5463 H   0  0  0  0  0  0  0  0  0  0  0  0
  1  2  2  0  0  0  0
  2  3  1  0  0  0  0
  3  4  2  0  0  0  0
  4  5  1  0  0  0  0
  5  6  2  0  0  0  0
  6  7  1  0  0  0  0
  7  8  2  0  0  0  0
  8  9  1  0  0  0  0
  9 10  2  0  0  0  0
 10 11  1  0  0  0  0
  1 12  1  0  0  0  0
 12 13  2  0  0  0  0
 13 14  1  0  0  0  0
 14 15  2  0  0  0  0
 15 16  1  0  0  0  0
 16 17  2  0  0  0  0
 11  3  1  0  0  0  0
 17 12  1  0  0  0  0
 10  5  1  0  0  0  0
  1 18  1  0  0  0  0
  2 19  1  0  0  0  0
  6 20  1  0  0  0  0
  7 21  1  0  0  0  0
  8 22  1  0  0  0  0
  9 23  1  0  0  0  0
 13 24  1  0  0  0  0
 14 25  1  0  0  0  0
 15 26  1  0  0  0  0
 16 27  1  0  0  0  0
 17 28  1  0  0  0  0
M  END
