
  xtb     03212212223D
 energy: -88.693473758103 gnorm: 0.000232066734 xtb: 6.4.1 (afa7bdf)
 46 49  0     0  0            999 V2000
    5.8256   -3.3555   -0.4189 F   0  0  0  0  0  0  0  0  0  0  0  0
    6.4135   -2.1617   -0.2698 C   0  0  0  0  0  0  0  0  0  0  0  0
    7.1345   -1.9534   -1.3877 F   0  0  0  0  0  0  0  0  0  0  0  0
    7.3069   -2.2993    0.7254 F   0  0  0  0  0  0  0  0  0  0  0  0
    5.4403   -1.0450   -0.0107 C   0  0  0  0  0  0  0  0  0  0  0  0
    4.0777   -1.2587   -0.1005 C   0  0  0  0  0  0  0  0  0  0  0  0
    3.1879   -0.2036    0.1328 C   0  0  0  0  0  0  0  0  0  0  0  0
    1.8484   -0.4962    0.0263 N   0  0  0  0  0  0  0  0  0  0  0  0
    1.0525    0.4944    0.2329 N   0  0  0  0  0  0  0  0  0  0  0  0
   -0.2768    0.2561    0.1363 C   0  0  0  0  0  0  0  0  0  0  0  0
   -1.1318    1.3463    0.3735 C   0  0  0  0  0  0  0  0  0  0  0  0
   -2.4939    1.2200    0.2901 C   0  0  0  0  0  0  0  0  0  0  0  0
   -3.0730   -0.0332   -0.0297 C   0  0  0  0  0  0  0  0  0  0  0  0
   -2.2159   -1.1394   -0.2636 C   0  0  0  0  0  0  0  0  0  0  0  0
   -0.8583   -0.9865   -0.1859 C   0  0  0  0  0  0  0  0  0  0  0  0
   -2.8177   -2.4719   -0.6128 C   0  0  0  0  0  0  0  0  0  0  0  0
   -4.1096   -2.2467   -1.3857 C   0  0  0  0  0  0  0  0  0  0  0  0
   -5.0450   -1.4072   -0.5290 C   0  0  0  0  0  0  0  0  0  0  0  0
   -4.4179   -0.1729   -0.1106 N   0  0  0  0  0  0  0  0  0  0  0  0
   -5.3282    0.9052    0.2067 C   0  0  0  0  0  0  0  0  0  0  0  0
   -4.6953    1.9093    1.1581 C   0  0  0  0  0  0  0  0  0  0  0  0
   -3.3899    2.3992    0.5471 C   0  0  0  0  0  0  0  0  0  0  0  0
    3.6999    1.0634    0.4558 C   0  0  0  0  0  0  0  0  0  0  0  0
    5.0644    1.2518    0.5371 C   0  0  0  0  0  0  0  0  0  0  0  0
    5.6383    2.5982    0.8846 C   0  0  0  0  0  0  0  0  0  0  0  0
    6.3376    2.5684    2.0344 F   0  0  0  0  0  0  0  0  0  0  0  0
    6.4920    3.0432   -0.0553 F   0  0  0  0  0  0  0  0  0  0  0  0
    4.7095    3.5509    1.0330 F   0  0  0  0  0  0  0  0  0  0  0  0
    5.9536    0.2070    0.3065 C   0  0  0  0  0  0  0  0  0  0  0  0
    3.6796   -2.2302   -0.3474 H   0  0  0  0  0  0  0  0  0  0  0  0
   -0.6882    2.2986    0.6210 H   0  0  0  0  0  0  0  0  0  0  0  0
   -0.1991   -1.8215   -0.3683 H   0  0  0  0  0  0  0  0  0  0  0  0
   -3.0309   -3.0328    0.3025 H   0  0  0  0  0  0  0  0  0  0  0  0
   -2.1091   -3.0557   -1.2008 H   0  0  0  0  0  0  0  0  0  0  0  0
   -4.5912   -3.1927   -1.6333 H   0  0  0  0  0  0  0  0  0  0  0  0
   -3.8902   -1.7172   -2.3148 H   0  0  0  0  0  0  0  0  0  0  0  0
   -5.3540   -1.9823    0.3558 H   0  0  0  0  0  0  0  0  0  0  0  0
   -5.9470   -1.1538   -1.0958 H   0  0  0  0  0  0  0  0  0  0  0  0
   -5.6350    1.4136   -0.7189 H   0  0  0  0  0  0  0  0  0  0  0  0
   -6.2234    0.4694    0.6624 H   0  0  0  0  0  0  0  0  0  0  0  0
   -5.3853    2.7359    1.3284 H   0  0  0  0  0  0  0  0  0  0  0  0
   -4.4907    1.4271    2.1160 H   0  0  0  0  0  0  0  0  0  0  0  0
   -3.5977    2.9181   -0.3938 H   0  0  0  0  0  0  0  0  0  0  0  0
   -2.8912    3.1058    1.2110 H   0  0  0  0  0  0  0  0  0  0  0  0
    3.0054    1.8700    0.6339 H   0  0  0  0  0  0  0  0  0  0  0  0
    7.0187    0.3655    0.3741 H   0  0  0  0  0  0  0  0  0  0  0  0
  1  2  1  0  0  0  0
  2  3  1  0  0  0  0
  2  4  1  0  0  0  0
  2  5  1  0  0  0  0
  5  6  2  0  0  0  0
  6  7  1  0  0  0  0
  7  8  1  0  0  0  0
  8  9  2  0  0  0  0
  9 10  1  0  0  0  0
 10 11  2  0  0  0  0
 11 12  1  0  0  0  0
 12 13  2  0  0  0  0
 13 14  1  0  0  0  0
 14 15  2  0  0  0  0
 14 16  1  0  0  0  0
 16 17  1  0  0  0  0
 17 18  1  0  0  0  0
 18 19  1  0  0  0  0
 19 20  1  0  0  0  0
 20 21  1  0  0  0  0
 21 22  1  0  0  0  0
  7 23  2  0  0  0  0
 23 24  1  0  0  0  0
 24 25  1  0  0  0  0
 25 26  1  0  0  0  0
 25 27  1  0  0  0  0
 25 28  1  0  0  0  0
 24 29  2  0  0  0  0
 29  5  1  0  0  0  0
 15 10  1  0  0  0  0
 22 12  1  0  0  0  0
 19 13  1  0  0  0  0
  6 30  1  0  0  0  0
 11 31  1  0  0  0  0
 15 32  1  0  0  0  0
 16 33  1  0  0  0  0
 16 34  1  0  0  0  0
 17 35  1  0  0  0  0
 17 36  1  0  0  0  0
 18 37  1  0  0  0  0
 18 38  1  0  0  0  0
 20 39  1  0  0  0  0
 20 40  1  0  0  0  0
 21 41  1  0  0  0  0
 21 42  1  0  0  0  0
 22 43  1  0  0  0  0
 22 44  1  0  0  0  0
 23 45  1  0  0  0  0
 29 46  1  0  0  0  0
M  END
