
  xtb     03212210373D
 energy: -78.966550649409 gnorm: 0.000137665475 xtb: 6.4.1 (afa7bdf)
 47 53  0     0  0            999 V2000
   -3.9554   -3.0192   -1.1102 C   0  0  0  0  0  0  0  0  0  0  0  0
   -2.5492   -2.5714   -1.0126 C   0  0  0  0  0  0  0  0  0  0  0  0
   -2.1944   -1.3986   -0.4677 N   0  0  0  0  0  4  0  0  0  0  0  0
   -0.8164   -1.3029   -0.4832 C   0  0  0  0  0  0  0  0  0  0  0  0
   -0.1862   -0.1262   -0.0299 C   0  0  0  0  0  0  0  0  0  0  0  0
    1.2339    0.0982    0.1354 C   0  0  0  0  0  0  0  0  0  0  0  0
    2.1506   -0.9518    0.4135 C   0  0  0  0  0  0  0  0  0  0  0  0
    1.7528   -2.2068    0.9275 C   0  0  0  0  0  0  0  0  0  0  0  0
    2.6628   -3.1977    1.1638 C   0  0  0  0  0  0  0  0  0  0  0  0
    4.0289   -3.0005    0.8916 C   0  0  0  0  0  0  0  0  0  0  0  0
    4.4639   -1.7793    0.4750 C   0  0  0  0  0  0  0  0  0  0  0  0
    3.5525   -0.7113    0.2765 C   0  0  0  0  0  0  0  0  0  0  0  0
    4.0048    0.5750   -0.0046 C   0  0  0  0  0  0  0  0  0  0  0  0
    3.1284    1.6576   -0.0199 C   0  0  0  0  0  0  0  0  0  0  0  0
    3.6152    2.9830   -0.1281 C   0  0  0  0  0  0  0  0  0  0  0  0
    2.7623    4.0494   -0.0793 C   0  0  0  0  0  0  0  0  0  0  0  0
    1.3883    3.8402    0.0689 C   0  0  0  0  0  0  0  0  0  0  0  0
    0.8596    2.5646    0.1298 C   0  0  0  0  0  0  0  0  0  0  0  0
   -0.5414    2.3152    0.2713 C   0  0  0  0  0  0  0  0  0  0  0  0
   -1.6840    3.1105    0.3897 C   0  0  0  0  0  0  0  0  0  0  0  0
   -2.7845    2.2547    0.3610 C   0  0  0  0  0  0  0  0  0  0  0  0
   -4.2208    2.5934    0.4767 C   0  0  0  0  0  0  0  0  0  0  0  0
   -2.3669    0.9813    0.2023 N   0  0  0  0  0  0  0  0  0  0  0  0
   -1.0050    0.9862    0.1700 C   0  0  0  0  0  0  0  0  0  0  0  0
   -3.1818   -0.3153    0.0451 B   0  0  0  0  0  4  0  0  0  0  0  0
   -3.7338   -0.7034    1.2543 F   0  0  0  0  0  0  0  0  0  0  0  0
   -4.1902   -0.1255   -0.8821 F   0  0  0  0  0  0  0  0  0  0  0  0
    1.7234    1.4256    0.0760 C   0  0  0  0  0  0  0  0  0  0  0  0
   -0.3140   -2.4577   -1.1197 C   0  0  0  0  0  0  0  0  0  0  0  0
   -1.3972   -3.2459   -1.4420 C   0  0  0  0  0  0  0  0  0  0  0  0
   -4.4609   -2.8609   -0.1593 H   0  0  0  0  0  0  0  0  0  0  0  0
   -4.4847   -2.4240   -1.8541 H   0  0  0  0  0  0  0  0  0  0  0  0
   -4.0027   -4.0686   -1.3879 H   0  0  0  0  0  0  0  0  0  0  0  0
    0.7149   -2.3664    1.1718 H   0  0  0  0  0  0  0  0  0  0  0  0
    2.3362   -4.1417    1.5734 H   0  0  0  0  0  0  0  0  0  0  0  0
    4.7267   -3.8082    1.0538 H   0  0  0  0  0  0  0  0  0  0  0  0
    5.5161   -1.5871    0.3229 H   0  0  0  0  0  0  0  0  0  0  0  0
    5.0622    0.7459   -0.1508 H   0  0  0  0  0  0  0  0  0  0  0  0
    4.6804    3.1310   -0.2290 H   0  0  0  0  0  0  0  0  0  0  0  0
    3.1427    5.0579   -0.1447 H   0  0  0  0  0  0  0  0  0  0  0  0
    0.7232    4.6873    0.1384 H   0  0  0  0  0  0  0  0  0  0  0  0
   -1.7327    4.1774    0.4844 H   0  0  0  0  0  0  0  0  0  0  0  0
   -4.3499    3.6443    0.7199 H   0  0  0  0  0  0  0  0  0  0  0  0
   -4.6821    1.9752    1.2453 H   0  0  0  0  0  0  0  0  0  0  0  0
   -4.7305    2.3698   -0.4600 H   0  0  0  0  0  0  0  0  0  0  0  0
    0.7172   -2.6565   -1.3355 H   0  0  0  0  0  0  0  0  0  0  0  0
   -1.3823   -4.1971   -1.9370 H   0  0  0  0  0  0  0  0  0  0  0  0
  1  2  1  0  0  0  0
  2  3  2  0  0  0  0
  3  4  1  0  0  0  0
  4  5  2  0  0  0  0
  5  6  1  0  0  0  0
  6  7  2  0  0  0  0
  7  8  1  0  0  0  0
  8  9  2  0  0  0  0
  9 10  1  0  0  0  0
 10 11  2  0  0  0  0
 11 12  1  0  0  0  0
 12 13  2  0  0  0  0
 13 14  1  0  0  0  0
 14 15  2  0  0  0  0
 15 16  1  0  0  0  0
 16 17  2  0  0  0  0
 17 18  1  0  0  0  0
 18 19  1  0  0  0  0
 19 20  1  0  0  0  0
 20 21  2  0  0  0  0
 21 22  1  0  0  0  0
 21 23  1  0  0  0  0
 23 24  1  0  0  0  0
 23 25  1  0  0  0  0
 25 26  1  0  0  0  0
 25 27  1  0  0  0  0
 18 28  2  0  0  0  0
  4 29  1  0  0  0  0
 29 30  2  0  0  0  0
 30  2  1  0  0  0  0
 25  3  1  0  0  0  0
 24  5  1  0  0  0  0
 28  6  1  0  0  0  0
 12  7  1  0  0  0  0
 28 14  1  0  0  0  0
 24 19  2  0  0  0  0
  1 31  1  0  0  0  0
  1 32  1  0  0  0  0
  1 33  1  0  0  0  0
  8 34  1  0  0  0  0
  9 35  1  0  0  0  0
 10 36  1  0  0  0  0
 11 37  1  0  0  0  0
 13 38  1  0  0  0  0
 15 39  1  0  0  0  0
 16 40  1  0  0  0  0
 17 41  1  0  0  0  0
 20 42  1  0  0  0  0
 22 43  1  0  0  0  0
 22 44  1  0  0  0  0
 22 45  1  0  0  0  0
 29 46  1  0  0  0  0
 30 47  1  0  0  0  0
M  CHG  1   3   1
M  CHG  1  25  -1
M  END
