
  xtb     03212210583D
 energy: -141.937838966119 gnorm: 0.000147034712 xtb: 6.4.1 (afa7bdf)
 82 88  0     0  0            999 V2000
   -9.2021   -1.1705    3.6487 C   0  0  0  0  0  0  0  0  0  0  0  0
   -8.7817   -0.7776    2.3671 O   0  0  0  0  0  0  0  0  0  0  0  0
   -7.4461   -0.6999    2.1209 C   0  0  0  0  0  0  0  0  0  0  0  0
   -6.4439   -0.9897    3.0317 C   0  0  0  0  0  0  0  0  0  0  0  0
   -5.1078   -0.8779    2.6762 C   0  0  0  0  0  0  0  0  0  0  0  0
   -4.7488   -0.4802    1.3994 C   0  0  0  0  0  0  0  0  0  0  0  0
   -3.3333   -0.3662    1.0043 C   0  0  0  0  0  0  0  0  0  0  0  0
   -2.8768   -1.1203   -0.0868 C   0  0  0  0  0  0  0  0  0  0  0  0
   -1.6274   -1.0736   -0.5995 N   0  0  0  0  0  0  0  0  0  0  0  0
   -1.6093   -1.9509   -1.6267 C   0  0  0  0  0  0  0  0  0  0  0  0
   -0.5393   -2.2419   -2.4668 C   0  0  0  0  0  0  0  0  0  0  0  0
    0.7467   -1.7359   -2.4238 C   0  0  0  0  0  0  0  0  0  0  0  0
    1.8184   -2.0686   -3.2988 C   0  0  0  0  0  0  0  0  0  0  0  0
    2.9200   -1.3699   -2.8989 C   0  0  0  0  0  0  0  0  0  0  0  0
    2.5498   -0.5905   -1.7678 C   0  0  0  0  0  0  0  0  0  0  0  0
    1.2389   -0.8375   -1.5203 N   0  0  0  0  0  0  0  0  0  0  0  0
    3.3784    0.2585   -1.0262 C   0  0  0  0  0  0  0  0  0  0  0  0
    4.7903    0.3916   -1.4628 C   0  0  0  0  0  0  0  0  0  0  0  0
    5.1369    1.1623   -2.5559 C   0  0  0  0  0  0  0  0  0  0  0  0
    6.4682    1.3066   -2.9208 C   0  0  0  0  0  0  0  0  0  0  0  0
    7.4712    0.6882   -2.1938 C   0  0  0  0  0  0  0  0  0  0  0  0
    8.8039    0.7713   -2.4619 O   0  0  0  0  0  0  0  0  0  0  0  0
    9.2174    1.5769   -3.5363 C   0  0  0  0  0  0  0  0  0  0  0  0
    7.1212   -0.1066   -1.0808 C   0  0  0  0  0  0  0  0  0  0  0  0
    8.1746   -0.6877   -0.4258 O   0  0  0  0  0  0  0  0  0  0  0  0
    7.9219   -1.4626    0.7072 C   0  0  0  0  0  0  0  0  0  0  0  0
    7.3776   -0.6804    1.8944 C   0  0  0  0  0  0  0  0  0  0  0  0
    7.1080    0.4861    1.9196 O   0  0  0  0  0  0  0  0  0  0  0  0
    7.2287   -1.4890    2.9515 O   0  0  0  0  0  0  0  0  0  0  0  0
    5.7919   -0.2546   -0.7404 C   0  0  0  0  0  0  0  0  0  0  0  0
    2.9777    0.9820    0.0860 C   0  0  0  0  0  0  0  0  0  0  0  0
    1.7521    0.9716    0.6165 N   0  0  0  0  0  0  0  0  0  0  0  0
    1.7110    1.8061    1.6575 C   0  0  0  0  0  0  0  0  0  0  0  0
    0.6210    2.0891    2.4505 C   0  0  0  0  0  0  0  0  0  0  0  0
   -0.6830    1.6014    2.3708 C   0  0  0  0  0  0  0  0  0  0  0  0
   -1.7551    2.0062    3.2146 C   0  0  0  0  0  0  0  0  0  0  0  0
   -2.8777    1.3353    2.8246 C   0  0  0  0  0  0  0  0  0  0  0  0
   -2.5177    0.4924    1.7385 C   0  0  0  0  0  0  0  0  0  0  0  0
   -1.1861    0.6918    1.5011 N   0  0  0  0  0  0  0  0  0  0  0  0
    3.0460    2.4832    1.9182 C   0  0  0  0  0  0  0  0  0  0  0  0
    3.9253    1.9242    0.8042 C   0  0  0  0  0  0  0  0  0  0  0  0
   -2.8974   -2.5991   -1.7669 C   0  0  0  0  0  0  0  0  0  0  0  0
   -3.6885   -2.0856   -0.8024 C   0  0  0  0  0  0  0  0  0  0  0  0
   -5.7543   -0.1859    0.4747 C   0  0  0  0  0  0  0  0  0  0  0  0
   -7.0882   -0.2880    0.8173 C   0  0  0  0  0  0  0  0  0  0  0  0
   -8.1368   -0.0203   -0.0168 O   0  0  0  0  0  0  0  0  0  0  0  0
   -7.8536    0.3586   -1.3347 C   0  0  0  0  0  0  0  0  0  0  0  0
   -9.1479    0.6404   -2.0809 C   0  0  0  0  0  0  0  0  0  0  0  0
   -9.2410    0.6068   -3.2781 O   0  0  0  0  0  0  0  0  0  0  0  0
  -10.1495    0.9613   -1.2756 O   0  0  0  0  0  0  0  0  0  0  0  0
   -8.8531   -0.4752    4.4197 H   0  0  0  0  0  0  0  0  0  0  0  0
  -10.2904   -1.1550    3.6175 H   0  0  0  0  0  0  0  0  0  0  0  0
   -8.8624   -2.1828    3.8933 H   0  0  0  0  0  0  0  0  0  0  0  0
   -6.6913   -1.3117    4.0306 H   0  0  0  0  0  0  0  0  0  0  0  0
   -4.3424   -1.1256    3.3956 H   0  0  0  0  0  0  0  0  0  0  0  0
   -0.7366   -2.9618   -3.2497 H   0  0  0  0  0  0  0  0  0  0  0  0
    1.7443   -2.7548   -4.1202 H   0  0  0  0  0  0  0  0  0  0  0  0
    3.9007   -1.3858   -3.3325 H   0  0  0  0  0  0  0  0  0  0  0  0
    0.7141   -0.4131   -0.7677 H   0  0  0  0  0  0  0  0  0  0  0  0
    4.3684    1.6626   -3.1254 H   0  0  0  0  0  0  0  0  0  0  0  0
    6.7105    1.9159   -3.7767 H   0  0  0  0  0  0  0  0  0  0  0  0
    8.9200    2.6215   -3.3958 H   0  0  0  0  0  0  0  0  0  0  0  0
    8.8222    1.2127   -4.4909 H   0  0  0  0  0  0  0  0  0  0  0  0
   10.3043    1.5118   -3.5503 H   0  0  0  0  0  0  0  0  0  0  0  0
    8.8891   -1.8830    0.9997 H   0  0  0  0  0  0  0  0  0  0  0  0
    7.2363   -2.2977    0.4997 H   0  0  0  0  0  0  0  0  0  0  0  0
    6.8939   -0.9932    3.7164 H   0  0  0  0  0  0  0  0  0  0  0  0
    5.4990   -0.8656    0.0994 H   0  0  0  0  0  0  0  0  0  0  0  0
    0.7891    2.8056    3.2436 H   0  0  0  0  0  0  0  0  0  0  0  0
   -1.6685    2.7248    4.0065 H   0  0  0  0  0  0  0  0  0  0  0  0
   -3.8638    1.4212    3.2367 H   0  0  0  0  0  0  0  0  0  0  0  0
   -0.7034    0.2143    0.7485 H   0  0  0  0  0  0  0  0  0  0  0  0
    3.4144    2.2258    2.9125 H   0  0  0  0  0  0  0  0  0  0  0  0
    2.9399    3.5676    1.8703 H   0  0  0  0  0  0  0  0  0  0  0  0
    4.8054    1.4013    1.1775 H   0  0  0  0  0  0  0  0  0  0  0  0
    4.2753    2.6941    0.1145 H   0  0  0  0  0  0  0  0  0  0  0  0
   -3.1310   -3.3449   -2.5029 H   0  0  0  0  0  0  0  0  0  0  0  0
   -4.7044   -2.3366   -0.5669 H   0  0  0  0  0  0  0  0  0  0  0  0
   -5.4597    0.1351   -0.5119 H   0  0  0  0  0  0  0  0  0  0  0  0
   -7.2569    1.2846   -1.3702 H   0  0  0  0  0  0  0  0  0  0  0  0
   -7.3073   -0.4223   -1.8826 H   0  0  0  0  0  0  0  0  0  0  0  0
  -10.9589    1.1300   -1.7848 H   0  0  0  0  0  0  0  0  0  0  0  0
  1  2  1  0  0  0  0
  2  3  1  0  0  0  0
  3  4  2  0  0  0  0
  4  5  1  0  0  0  0
  5  6  2  0  0  0  0
  6  7  1  0  0  0  0
  7  8  1  0  0  0  0
  8  9  2  0  0  0  0
  9 10  1  0  0  0  0
 10 11  2  0  0  0  0
 11 12  1  0  0  0  0
 12 13  2  0  0  0  0
 13 14  1  0  0  0  0
 14 15  2  0  0  0  0
 15 16  1  0  0  0  0
 15 17  1  0  0  0  0
 17 18  1  0  0  0  0
 18 19  2  0  0  0  0
 19 20  1  0  0  0  0
 20 21  2  0  0  0  0
 21 22  1  0  0  0  0
 22 23  1  0  0  0  0
 21 24  1  0  0  0  0
 24 25  1  0  0  0  0
 25 26  1  0  0  0  0
 26 27  1  0  0  0  0
 27 28  2  0  0  0  0
 27 29  1  0  0  0  0
 24 30  2  0  0  0  0
 17 31  2  0  0  0  0
 31 32  1  0  0  0  0
 32 33  2  0  0  0  0
 33 34  1  0  0  0  0
 34 35  2  0  0  0  0
 35 36  1  0  0  0  0
 36 37  2  0  0  0  0
 37 38  1  0  0  0  0
 38 39  1  0  0  0  0
 33 40  1  0  0  0  0
 40 41  1  0  0  0  0
 10 42  1  0  0  0  0
 42 43  2  0  0  0  0
  6 44  1  0  0  0  0
 44 45  2  0  0  0  0
 45 46  1  0  0  0  0
 46 47  1  0  0  0  0
 47 48  1  0  0  0  0
 48 49  2  0  0  0  0
 48 50  1  0  0  0  0
 45  3  1  0  0  0  0
 38  7  2  0  0  0  0
 43  8  1  0  0  0  0
 16 12  1  0  0  0  0
 30 18  1  0  0  0  0
 41 31  1  0  0  0  0
 39 35  1  0  0  0  0
  1 51  1  0  0  0  0
  1 52  1  0  0  0  0
  1 53  1  0  0  0  0
  4 54  1  0  0  0  0
  5 55  1  0  0  0  0
 11 56  1  0  0  0  0
 13 57  1  0  0  0  0
 14 58  1  0  0  0  0
 16 59  1  0  0  0  0
 19 60  1  0  0  0  0
 20 61  1  0  0  0  0
 23 62  1  0  0  0  0
 23 63  1  0  0  0  0
 23 64  1  0  0  0  0
 26 65  1  0  0  0  0
 26 66  1  0  0  0  0
 29 67  1  0  0  0  0
 30 68  1  0  0  0  0
 34 69  1  0  0  0  0
 36 70  1  0  0  0  0
 37 71  1  0  0  0  0
 39 72  1  0  0  0  0
 40 73  1  0  0  0  0
 40 74  1  0  0  0  0
 41 75  1  0  0  0  0
 41 76  1  0  0  0  0
 42 77  1  0  0  0  0
 43 78  1  0  0  0  0
 44 79  1  0  0  0  0
 47 80  1  0  0  0  0
 47 81  1  0  0  0  0
 50 82  1  0  0  0  0
M  END
