
  xtb     03212211143D
 energy: -102.288018373660 gnorm: 0.000296516927 xtb: 6.4.1 (afa7bdf)
 59 62  0     0  0            999 V2000
   -0.8206   -3.6016    3.3923 C   0  0  0  0  0  0  0  0  0  0  0  0
   -1.3668   -3.8308    1.9903 C   0  0  0  0  0  0  0  0  0  0  0  0
   -1.4116   -2.6153    1.2453 O   0  0  0  0  0  0  0  0  0  0  0  0
   -0.2947   -2.2592    0.5953 C   0  0  0  0  0  0  0  0  0  0  0  0
    0.7348   -2.8892    0.6372 O   0  0  0  0  0  0  0  0  0  0  0  0
   -0.5190   -1.0189   -0.1540 C   0  0  0  0  0  0  0  0  0  0  0  0
    0.3747    0.0412   -0.4850 C   0  0  0  0  0  0  0  0  0  0  0  0
    1.7931    0.1882   -0.2029 C   0  0  0  0  0  0  0  0  0  0  0  0
    2.6723   -0.8447   -0.2503 C   0  0  0  0  0  0  0  0  0  0  0  0
    4.0536   -0.6334    0.0243 C   0  0  0  0  0  0  0  0  0  0  0  0
    5.0189   -1.6509    0.0006 C   0  0  0  0  0  0  0  0  0  0  0  0
    6.3332   -1.3730    0.2623 C   0  0  0  0  0  0  0  0  0  0  0  0
    6.7426   -0.0596    0.5570 C   0  0  0  0  0  0  0  0  0  0  0  0
    8.0629    0.0992    0.7971 O   0  0  0  0  0  0  0  0  0  0  0  0
    8.5484    1.3876    1.0992 C   0  0  0  0  0  0  0  0  0  0  0  0
    5.8050    0.9619    0.5863 C   0  0  0  0  0  0  0  0  0  0  0  0
    4.4689    0.6721    0.3240 C   0  0  0  0  0  0  0  0  0  0  0  0
    3.5901    1.6964    0.3749 O   0  0  0  0  0  0  0  0  0  0  0  0
    2.2474    1.5407    0.1432 C   0  0  0  0  0  0  0  0  0  0  0  0
    1.5508    2.5147    0.2659 O   0  0  0  0  0  0  0  0  0  0  0  0
   -0.2902    1.0099   -1.0868 N   0  0  0  0  0  0  0  0  0  0  0  0
   -1.5592    0.6399   -1.1632 N   0  0  0  0  0  0  0  0  0  0  0  0
   -2.4909    1.4872   -1.7827 C   0  0  0  0  0  0  0  0  0  0  0  0
   -3.5864    0.9816   -2.4699 C   0  0  0  0  0  0  0  0  0  0  0  0
   -4.4739    1.8672   -3.0549 C   0  0  0  0  0  0  0  0  0  0  0  0
   -4.2635    3.2321   -2.9699 C   0  0  0  0  0  0  0  0  0  0  0  0
   -3.1525    3.7421   -2.3058 C   0  0  0  0  0  0  0  0  0  0  0  0
   -2.9255    5.2185   -2.2090 C   0  0  0  0  0  0  0  0  0  0  0  0
   -2.2671    2.8564   -1.7107 C   0  0  0  0  0  0  0  0  0  0  0  0
   -1.7590   -0.5768   -0.6065 C   0  0  0  0  0  0  0  0  0  0  0  0
   -3.0745   -1.2481   -0.4762 C   0  0  0  0  0  0  0  0  0  0  0  0
   -3.3398   -2.3304   -0.9291 O   0  0  0  0  0  0  0  0  0  0  0  0
   -3.9181   -0.4754    0.2109 O   0  0  0  0  0  0  0  0  0  0  0  0
   -5.2236   -1.0018    0.4548 C   0  0  0  0  0  0  0  0  0  0  0  0
   -5.2217   -1.9458    1.6477 C   0  0  0  0  0  0  0  0  0  0  0  0
   -1.4107   -2.8472    3.9076 H   0  0  0  0  0  0  0  0  0  0  0  0
    0.2118   -3.2647    3.3368 H   0  0  0  0  0  0  0  0  0  0  0  0
   -0.8590   -4.5300    3.9549 H   0  0  0  0  0  0  0  0  0  0  0  0
   -0.7433   -4.5526    1.4529 H   0  0  0  0  0  0  0  0  0  0  0  0
   -2.3997   -4.1843    2.0211 H   0  0  0  0  0  0  0  0  0  0  0  0
    2.3367   -1.8410   -0.4927 H   0  0  0  0  0  0  0  0  0  0  0  0
    4.7032   -2.6579   -0.2235 H   0  0  0  0  0  0  0  0  0  0  0  0
    7.0854   -2.1451    0.2498 H   0  0  0  0  0  0  0  0  0  0  0  0
    9.6201    1.2696    1.2504 H   0  0  0  0  0  0  0  0  0  0  0  0
    8.3724    2.0842    0.2743 H   0  0  0  0  0  0  0  0  0  0  0  0
    8.0940    1.7816    2.0130 H   0  0  0  0  0  0  0  0  0  0  0  0
    6.0650    1.9833    0.8087 H   0  0  0  0  0  0  0  0  0  0  0  0
   -3.7319   -0.0832   -2.5683 H   0  0  0  0  0  0  0  0  0  0  0  0
   -5.3304    1.4866   -3.5912 H   0  0  0  0  0  0  0  0  0  0  0  0
   -4.9642    3.9109   -3.4338 H   0  0  0  0  0  0  0  0  0  0  0  0
   -3.2987    5.7280   -3.0944 H   0  0  0  0  0  0  0  0  0  0  0  0
   -1.8679    5.4371   -2.0888 H   0  0  0  0  0  0  0  0  0  0  0  0
   -3.4535    5.6180   -1.3427 H   0  0  0  0  0  0  0  0  0  0  0  0
   -1.3898    3.2059   -1.1883 H   0  0  0  0  0  0  0  0  0  0  0  0
   -5.8491   -0.1261    0.6389 H   0  0  0  0  0  0  0  0  0  0  0  0
   -5.5681   -1.5260   -0.4430 H   0  0  0  0  0  0  0  0  0  0  0  0
   -4.5911   -2.8048    1.4337 H   0  0  0  0  0  0  0  0  0  0  0  0
   -4.8367   -1.4364    2.5273 H   0  0  0  0  0  0  0  0  0  0  0  0
   -6.2332   -2.2884    1.8458 H   0  0  0  0  0  0  0  0  0  0  0  0
  1  2  1  0  0  0  0
  2  3  1  0  0  0  0
  3  4  1  0  0  0  0
  4  5  2  0  0  0  0
  4  6  1  0  0  0  0
  6  7  1  0  0  0  0
  7  8  1  0  0  0  0
  8  9  2  0  0  0  0
  9 10  1  0  0  0  0
 10 11  2  0  0  0  0
 11 12  1  0  0  0  0
 12 13  2  0  0  0  0
 13 14  1  0  0  0  0
 14 15  1  0  0  0  0
 13 16  1  0  0  0  0
 16 17  2  0  0  0  0
 17 18  1  0  0  0  0
 18 19  1  0  0  0  0
 19 20  2  0  0  0  0
  7 21  2  0  0  0  0
 21 22  1  0  0  0  0
 22 23  1  0  0  0  0
 23 24  2  0  0  0  0
 24 25  1  0  0  0  0
 25 26  2  0  0  0  0
 26 27  1  0  0  0  0
 27 28  1  0  0  0  0
 27 29  2  0  0  0  0
 22 30  1  0  0  0  0
 30 31  1  0  0  0  0
 31 32  2  0  0  0  0
 31 33  1  0  0  0  0
 33 34  1  0  0  0  0
 34 35  1  0  0  0  0
 30  6  2  0  0  0  0
 19  8  1  0  0  0  0
 29 23  1  0  0  0  0
 17 10  1  0  0  0  0
  1 36  1  0  0  0  0
  1 37  1  0  0  0  0
  1 38  1  0  0  0  0
  2 39  1  0  0  0  0
  2 40  1  0  0  0  0
  9 41  1  0  0  0  0
 11 42  1  0  0  0  0
 12 43  1  0  0  0  0
 15 44  1  0  0  0  0
 15 45  1  0  0  0  0
 15 46  1  0  0  0  0
 16 47  1  0  0  0  0
 24 48  1  0  0  0  0
 25 49  1  0  0  0  0
 26 50  1  0  0  0  0
 28 51  1  0  0  0  0
 28 52  1  0  0  0  0
 28 53  1  0  0  0  0
 29 54  1  0  0  0  0
 34 55  1  0  0  0  0
 34 56  1  0  0  0  0
 35 57  1  0  0  0  0
 35 58  1  0  0  0  0
 35 59  1  0  0  0  0
M  END
