
  xtb     03212211293D
 energy: -82.786257966029 gnorm: 0.000061149544 xtb: 6.4.1 (afa7bdf)
 47 51  0     0  0            999 V2000
    6.6929    0.4412   -0.1310 C   0  0  0  0  0  0  0  0  0  0  0  0
    5.3308    0.7664    0.0043 O   0  0  0  0  0  0  0  0  0  0  0  0
    4.4141   -0.2454    0.0929 C   0  0  0  0  0  0  0  0  0  0  0  0
    4.7697   -1.5857    0.1396 C   0  0  0  0  0  0  0  0  0  0  0  0
    3.8123   -2.5805    0.2643 C   0  0  0  0  0  0  0  0  0  0  0  0
    2.4805   -2.2462    0.3356 C   0  0  0  0  0  0  0  0  0  0  0  0
    2.0897   -0.9073    0.2709 C   0  0  0  0  0  0  0  0  0  0  0  0
    0.6783   -0.5709    0.3005 C   0  0  0  0  0  0  0  0  0  0  0  0
    0.1038    0.4520   -0.2931 N   0  0  0  0  0  0  0  0  0  0  0  0
   -1.2168    0.3507   -0.0322 C   0  0  0  0  0  0  0  0  0  0  0  0
   -1.4648   -0.7759    0.7613 C   0  0  0  0  0  0  0  0  0  0  0  0
   -0.2438   -1.3551    0.9455 N   0  0  0  0  0  0  0  0  0  0  0  0
   -2.7615   -1.1542    1.1951 C   0  0  0  0  0  0  0  0  0  0  0  0
   -3.2075   -2.3400    1.6495 C   0  0  0  0  0  0  0  0  0  0  0  0
   -4.6413   -2.4555    1.8326 C   0  0  0  0  0  0  0  0  0  0  0  0
   -5.2708   -3.3982    2.2238 O   0  0  0  0  0  0  0  0  0  0  0  0
   -5.4111   -0.9147    1.3189 S   0  0  0  0  0  0  0  0  0  0  0  0
   -3.8023   -0.0649    1.0670 C   0  0  0  0  0  0  0  0  0  0  0  0
   -3.6263    0.9468    2.2030 C   0  0  0  0  0  0  0  0  0  0  0  0
   -3.6690    0.6145   -0.3096 C   0  0  0  0  0  0  0  0  0  0  0  0
   -3.9194   -0.3781   -1.4480 C   0  0  0  0  0  0  0  0  0  0  0  0
   -4.8132    2.0315   -0.5417 S   0  0  0  0  0  0  0  0  0  0  0  0
   -3.4985    3.1514   -1.0507 C   0  0  0  0  0  0  0  0  0  0  0  0
   -3.7137    4.2686   -1.4254 O   0  0  0  0  0  0  0  0  0  0  0  0
   -2.2254    2.4735   -0.8815 C   0  0  0  0  0  0  0  0  0  0  0  0
   -2.2860    1.2069   -0.4452 C   0  0  0  0  0  0  0  0  0  0  0  0
    3.0492    0.1151    0.1556 C   0  0  0  0  0  0  0  0  0  0  0  0
    2.5582    1.3701    0.1872 O   0  0  0  0  0  0  0  0  0  0  0  0
    3.2874    2.4713   -0.3116 C   0  0  0  0  0  0  0  0  0  0  0  0
    6.8779   -0.1587   -1.0274 H   0  0  0  0  0  0  0  0  0  0  0  0
    7.0717   -0.0874    0.7494 H   0  0  0  0  0  0  0  0  0  0  0  0
    7.2087    1.3956   -0.2248 H   0  0  0  0  0  0  0  0  0  0  0  0
    5.8079   -1.8700    0.0909 H   0  0  0  0  0  0  0  0  0  0  0  0
    4.1201   -3.6135    0.3018 H   0  0  0  0  0  0  0  0  0  0  0  0
    1.7341   -3.0231    0.4011 H   0  0  0  0  0  0  0  0  0  0  0  0
   -0.0477   -2.1668    1.5074 H   0  0  0  0  0  0  0  0  0  0  0  0
   -2.5957   -3.2066    1.8366 H   0  0  0  0  0  0  0  0  0  0  0  0
   -2.6591    1.4411    2.1285 H   0  0  0  0  0  0  0  0  0  0  0  0
   -3.6935    0.4418    3.1642 H   0  0  0  0  0  0  0  0  0  0  0  0
   -4.4121    1.6963    2.1483 H   0  0  0  0  0  0  0  0  0  0  0  0
   -4.9358   -0.7594   -1.3853 H   0  0  0  0  0  0  0  0  0  0  0  0
   -3.7917    0.1199   -2.4062 H   0  0  0  0  0  0  0  0  0  0  0  0
   -3.2223   -1.2124   -1.3907 H   0  0  0  0  0  0  0  0  0  0  0  0
   -1.3091    3.0066   -1.0656 H   0  0  0  0  0  0  0  0  0  0  0  0
    3.6895    2.2694   -1.3060 H   0  0  0  0  0  0  0  0  0  0  0  0
    4.1007    2.7590    0.3577 H   0  0  0  0  0  0  0  0  0  0  0  0
    2.5606    3.2807   -0.3731 H   0  0  0  0  0  0  0  0  0  0  0  0
  1  2  1  0  0  0  0
  2  3  1  0  0  0  0
  3  4  2  0  0  0  0
  4  5  1  0  0  0  0
  5  6  2  0  0  0  0
  6  7  1  0  0  0  0
  7  8  1  0  0  0  0
  8  9  2  0  0  0  0
  9 10  1  0  0  0  0
 10 11  2  0  0  0  0
 11 12  1  0  0  0  0
 11 13  1  0  0  0  0
 13 14  2  0  0  0  0
 14 15  1  0  0  0  0
 15 16  2  0  0  0  0
 15 17  1  0  0  0  0
 17 18  1  0  0  0  0
 18 19  1  0  0  0  0
 18 20  1  0  0  0  0
 20 21  1  0  0  0  0
 20 22  1  0  0  0  0
 22 23  1  0  0  0  0
 23 24  2  0  0  0  0
 23 25  1  0  0  0  0
 25 26  2  0  0  0  0
  7 27  2  0  0  0  0
 27 28  1  0  0  0  0
 28 29  1  0  0  0  0
 27  3  1  0  0  0  0
 12  8  1  0  0  0  0
 18 13  1  0  0  0  0
 26 20  1  0  0  0  0
 26 10  1  0  0  0  0
  1 30  1  0  0  0  0
  1 31  1  0  0  0  0
  1 32  1  0  0  0  0
  4 33  1  0  0  0  0
  5 34  1  0  0  0  0
  6 35  1  0  0  0  0
 12 36  1  0  0  0  0
 14 37  1  0  0  0  0
 19 38  1  0  0  0  0
 19 39  1  0  0  0  0
 19 40  1  0  0  0  0
 21 41  1  0  0  0  0
 21 42  1  0  0  0  0
 21 43  1  0  0  0  0
 25 44  1  0  0  0  0
 29 45  1  0  0  0  0
 29 46  1  0  0  0  0
 29 47  1  0  0  0  0
M  END
