
  xtb     03212212223D
 energy: -83.896496577437 gnorm: 0.000436502507 xtb: 6.4.1 (afa7bdf)
 52 55  0     0  0            999 V2000
    4.4143    5.0622   -0.5592 C   0  0  0  0  0  0  0  0  0  0  0  0
    3.9615    3.7241   -0.4347 O   0  0  0  0  0  0  0  0  0  0  0  0
    4.9212    2.7857   -0.3989 C   0  0  0  0  0  0  0  0  0  0  0  0
    6.0966    3.0479   -0.4627 O   0  0  0  0  0  0  0  0  0  0  0  0
    4.3693    1.4124   -0.2772 C   0  0  0  0  0  0  0  0  0  0  0  0
    3.0026    1.1805   -0.2233 C   0  0  0  0  0  0  0  0  0  0  0  0
    2.5148   -0.1283   -0.1116 C   0  0  0  0  0  0  0  0  0  0  0  0
    1.1779   -0.4313    0.0263 N   0  0  0  0  0  0  0  0  0  0  0  0
    0.3498    0.4513   -0.3858 N   0  0  0  0  0  0  0  0  0  0  0  0
   -0.9767    0.2002   -0.1937 C   0  0  0  0  0  0  0  0  0  0  0  0
   -1.5035   -0.9597    0.3985 C   0  0  0  0  0  0  0  0  0  0  0  0
   -2.8556   -1.1373    0.5452 C   0  0  0  0  0  0  0  0  0  0  0  0
   -3.7564   -0.1374    0.1058 C   0  0  0  0  0  0  0  0  0  0  0  0
   -3.2320    1.0303   -0.4949 C   0  0  0  0  0  0  0  0  0  0  0  0
   -1.8742    1.1794   -0.6405 C   0  0  0  0  0  0  0  0  0  0  0  0
   -4.1568    2.1188   -0.9705 C   0  0  0  0  0  0  0  0  0  0  0  0
   -5.5259    1.5401   -1.2937 C   0  0  0  0  0  0  0  0  0  0  0  0
   -6.0178    0.7601   -0.0828 C   0  0  0  0  0  0  0  0  0  0  0  0
   -5.1029   -0.3116    0.2299 N   0  0  0  0  0  0  0  0  0  0  0  0
   -5.6394   -1.4367    0.9577 C   0  0  0  0  0  0  0  0  0  0  0  0
   -4.7941   -2.6781    0.7111 C   0  0  0  0  0  0  0  0  0  0  0  0
   -3.3763   -2.3967    1.1848 C   0  0  0  0  0  0  0  0  0  0  0  0
    3.4172   -1.1943   -0.0454 C   0  0  0  0  0  0  0  0  0  0  0  0
    4.7835   -0.9576   -0.1101 C   0  0  0  0  0  0  0  0  0  0  0  0
    5.7692   -2.0660   -0.0515 C   0  0  0  0  0  0  0  0  0  0  0  0
    6.9657   -1.9206   -0.0864 O   0  0  0  0  0  0  0  0  0  0  0  0
    5.1839   -3.2709    0.0469 O   0  0  0  0  0  0  0  0  0  0  0  0
    6.0671   -4.3792    0.1093 C   0  0  0  0  0  0  0  0  0  0  0  0
    5.2619    0.3452   -0.2241 C   0  0  0  0  0  0  0  0  0  0  0  0
    5.0598    5.3255    0.2817 H   0  0  0  0  0  0  0  0  0  0  0  0
    3.5239    5.6857   -0.5680 H   0  0  0  0  0  0  0  0  0  0  0  0
    4.9801    5.1873   -1.4851 H   0  0  0  0  0  0  0  0  0  0  0  0
    2.2978    1.9963   -0.2585 H   0  0  0  0  0  0  0  0  0  0  0  0
   -0.8124   -1.7185    0.7338 H   0  0  0  0  0  0  0  0  0  0  0  0
   -1.4733    2.0699   -1.1006 H   0  0  0  0  0  0  0  0  0  0  0  0
   -4.2560    2.8781   -0.1879 H   0  0  0  0  0  0  0  0  0  0  0  0
   -3.7286    2.6073   -1.8470 H   0  0  0  0  0  0  0  0  0  0  0  0
   -6.2363    2.3298   -1.5398 H   0  0  0  0  0  0  0  0  0  0  0  0
   -5.4482    0.8654   -2.1483 H   0  0  0  0  0  0  0  0  0  0  0  0
   -6.1265    1.4388    0.7768 H   0  0  0  0  0  0  0  0  0  0  0  0
   -6.9991    0.3217   -0.2884 H   0  0  0  0  0  0  0  0  0  0  0  0
   -5.6740   -1.2193    2.0361 H   0  0  0  0  0  0  0  0  0  0  0  0
   -6.6659   -1.6043    0.6176 H   0  0  0  0  0  0  0  0  0  0  0  0
   -4.7881   -2.9023   -0.3573 H   0  0  0  0  0  0  0  0  0  0  0  0
   -5.2221   -3.5297    1.2408 H   0  0  0  0  0  0  0  0  0  0  0  0
   -2.7162   -3.2309    0.9425 H   0  0  0  0  0  0  0  0  0  0  0  0
   -3.3704   -2.2799    2.2734 H   0  0  0  0  0  0  0  0  0  0  0  0
    3.0373   -2.1994    0.0439 H   0  0  0  0  0  0  0  0  0  0  0  0
    6.7287   -4.2897    0.9737 H   0  0  0  0  0  0  0  0  0  0  0  0
    6.6789   -4.4289   -0.7942 H   0  0  0  0  0  0  0  0  0  0  0  0
    5.4410   -5.2636    0.1963 H   0  0  0  0  0  0  0  0  0  0  0  0
    6.3248    0.5279   -0.2667 H   0  0  0  0  0  0  0  0  0  0  0  0
  1  2  1  0  0  0  0
  2  3  1  0  0  0  0
  3  4  2  0  0  0  0
  3  5  1  0  0  0  0
  5  6  2  0  0  0  0
  6  7  1  0  0  0  0
  7  8  1  0  0  0  0
  8  9  2  0  0  0  0
  9 10  1  0  0  0  0
 10 11  2  0  0  0  0
 11 12  1  0  0  0  0
 12 13  2  0  0  0  0
 13 14  1  0  0  0  0
 14 15  2  0  0  0  0
 14 16  1  0  0  0  0
 16 17  1  0  0  0  0
 17 18  1  0  0  0  0
 18 19  1  0  0  0  0
 19 20  1  0  0  0  0
 20 21  1  0  0  0  0
 21 22  1  0  0  0  0
  7 23  2  0  0  0  0
 23 24  1  0  0  0  0
 24 25  1  0  0  0  0
 25 26  2  0  0  0  0
 25 27  1  0  0  0  0
 27 28  1  0  0  0  0
 24 29  2  0  0  0  0
 29  5  1  0  0  0  0
 15 10  1  0  0  0  0
 22 12  1  0  0  0  0
 19 13  1  0  0  0  0
  1 30  1  0  0  0  0
  1 31  1  0  0  0  0
  1 32  1  0  0  0  0
  6 33  1  0  0  0  0
 11 34  1  0  0  0  0
 15 35  1  0  0  0  0
 16 36  1  0  0  0  0
 16 37  1  0  0  0  0
 17 38  1  0  0  0  0
 17 39  1  0  0  0  0
 18 40  1  0  0  0  0
 18 41  1  0  0  0  0
 20 42  1  0  0  0  0
 20 43  1  0  0  0  0
 21 44  1  0  0  0  0
 21 45  1  0  0  0  0
 22 46  1  0  0  0  0
 22 47  1  0  0  0  0
 23 48  1  0  0  0  0
 28 49  1  0  0  0  0
 28 50  1  0  0  0  0
 28 51  1  0  0  0  0
 29 52  1  0  0  0  0
M  END
