
  xtb     03212210313D
 energy: -77.780125917985 gnorm: 0.000360390875 xtb: 6.4.1 (afa7bdf)
 42 44  0     0  0            999 V2000
    0.3837    5.2062   -2.6969 C   0  0  0  0  0  0  0  0  0  0  0  0
    0.0765    3.9190   -2.1814 O   0  0  0  0  0  0  0  0  0  0  0  0
   -1.1196    3.4218   -2.5421 C   0  0  0  0  0  0  0  0  0  0  0  0
   -1.8924    4.0060   -3.2570 O   0  0  0  0  0  0  0  0  0  0  0  0
   -1.3611    2.0776   -1.9585 C   0  0  0  0  0  0  0  0  0  0  0  0
   -2.5314    1.4315   -2.4089 C   0  0  0  0  0  0  0  0  0  0  0  0
   -3.4797    0.8946   -2.7674 N   0  0  0  0  0  0  0  0  0  0  0  0
   -0.5056    1.5224   -1.0647 C   0  0  0  0  0  0  0  0  0  0  0  0
   -0.6368    0.2533   -0.4266 C   0  0  0  0  0  0  0  0  0  0  0  0
   -1.7407   -0.5885   -0.3449 C   0  0  0  0  0  0  0  0  0  0  0  0
   -1.3996   -1.6245    0.4417 N   0  0  0  0  0  0  0  0  0  0  0  0
   -2.1803   -2.7302    0.8086 C   0  0  0  0  0  0  0  0  0  0  0  0
   -3.4070   -2.9823    0.2029 C   0  0  0  0  0  0  0  0  0  0  0  0
   -4.1454   -4.0837    0.5961 C   0  0  0  0  0  0  0  0  0  0  0  0
   -3.6706   -4.9345    1.5804 C   0  0  0  0  0  0  0  0  0  0  0  0
   -2.4446   -4.6844    2.1755 C   0  0  0  0  0  0  0  0  0  0  0  0
   -1.6980   -3.5863    1.7945 C   0  0  0  0  0  0  0  0  0  0  0  0
   -0.1452   -1.5163    0.8837 N   0  0  0  0  0  0  0  0  0  0  0  0
    0.3509   -0.4041    0.3764 C   0  0  0  0  0  0  0  0  0  0  0  0
    1.7220   -0.0058    0.6500 C   0  0  0  0  0  0  0  0  0  0  0  0
    2.5072    0.6171   -0.3229 C   0  0  0  0  0  0  0  0  0  0  0  0
    3.8016    0.9958   -0.0340 C   0  0  0  0  0  0  0  0  0  0  0  0
    4.3208    0.7443    1.2307 C   0  0  0  0  0  0  0  0  0  0  0  0
    5.6688    1.1481    1.5353 N   0  0  0  0  0  4  0  0  0  0  0  0
    6.2949    1.7201    0.6677 O   0  0  0  0  0  0  0  0  0  0  0  0
    6.0965    0.8946    2.6417 O   0  0  0  0  0  1  0  0  0  0  0  0
    3.5621    0.0990    2.2021 C   0  0  0  0  0  0  0  0  0  0  0  0
    2.2691   -0.2741    1.9080 C   0  0  0  0  0  0  0  0  0  0  0  0
    1.3725    5.4543   -2.3202 H   0  0  0  0  0  0  0  0  0  0  0  0
   -0.3529    5.9366   -2.3567 H   0  0  0  0  0  0  0  0  0  0  0  0
    0.3804    5.1880   -3.7886 H   0  0  0  0  0  0  0  0  0  0  0  0
    0.3657    2.1028   -0.7931 H   0  0  0  0  0  0  0  0  0  0  0  0
   -2.7147   -0.4737   -0.7697 H   0  0  0  0  0  0  0  0  0  0  0  0
   -3.7847   -2.3383   -0.5750 H   0  0  0  0  0  0  0  0  0  0  0  0
   -5.0969   -4.2782    0.1255 H   0  0  0  0  0  0  0  0  0  0  0  0
   -4.2534   -5.7919    1.8800 H   0  0  0  0  0  0  0  0  0  0  0  0
   -2.0682   -5.3464    2.9402 H   0  0  0  0  0  0  0  0  0  0  0  0
   -0.7404   -3.3755    2.2423 H   0  0  0  0  0  0  0  0  0  0  0  0
    2.1144    0.7758   -1.3153 H   0  0  0  0  0  0  0  0  0  0  0  0
    4.4236    1.4792   -0.7719 H   0  0  0  0  0  0  0  0  0  0  0  0
    3.9998   -0.0947    3.1693 H   0  0  0  0  0  0  0  0  0  0  0  0
    1.6590   -0.7743    2.6427 H   0  0  0  0  0  0  0  0  0  0  0  0
  1  2  1  0  0  0  0
  2  3  1  0  0  0  0
  3  4  2  0  0  0  0
  3  5  1  0  0  0  0
  5  6  1  0  0  0  0
  6  7  3  0  0  0  0
  5  8  2  0  0  0  0
  8  9  1  0  0  0  0
  9 10  2  0  0  0  0
 10 11  1  0  0  0  0
 11 12  1  0  0  0  0
 12 13  2  0  0  0  0
 13 14  1  0  0  0  0
 14 15  2  0  0  0  0
 15 16  1  0  0  0  0
 16 17  2  0  0  0  0
 11 18  1  0  0  0  0
 18 19  2  0  0  0  0
 19 20  1  0  0  0  0
 20 21  2  0  0  0  0
 21 22  1  0  0  0  0
 22 23  2  0  0  0  0
 23 24  1  0  0  0  0
 24 25  2  0  0  0  0
 24 26  1  0  0  0  0
 23 27  1  0  0  0  0
 27 28  2  0  0  0  0
 19  9  1  0  0  0  0
 28 20  1  0  0  0  0
 17 12  1  0  0  0  0
  1 29  1  0  0  0  0
  1 30  1  0  0  0  0
  1 31  1  0  0  0  0
  8 32  1  0  0  0  0
 10 33  1  0  0  0  0
 13 34  1  0  0  0  0
 14 35  1  0  0  0  0
 15 36  1  0  0  0  0
 16 37  1  0  0  0  0
 17 38  1  0  0  0  0
 21 39  1  0  0  0  0
 22 40  1  0  0  0  0
 27 41  1  0  0  0  0
 28 42  1  0  0  0  0
M  CHG  1  24   1
M  CHG  1  26  -1
M  END
