
  xtb     03212211203D
 energy: -67.351426560887 gnorm: 0.000361186413 xtb: 6.4.1 (afa7bdf)
 41 43  0     0  0            999 V2000
   -4.3949   -1.8173   -1.1088 C   0  0  0  0  0  0  0  0  0  0  0  0
   -4.2028   -0.3433   -1.4707 C   0  0  0  0  0  0  0  0  0  0  0  0
   -3.6006    0.4418   -0.4154 N   0  0  0  0  0  0  0  0  0  0  0  0
   -4.4927    1.0226    0.5664 C   0  0  0  0  0  0  0  0  0  0  0  0
   -4.5342    0.2451    1.8833 C   0  0  0  0  0  0  0  0  0  0  0  0
   -2.2460    0.4774   -0.2489 C   0  0  0  0  0  0  0  0  0  0  0  0
   -1.6476    1.3059    0.7317 C   0  0  0  0  0  0  0  0  0  0  0  0
   -0.2903    1.3716    0.8871 C   0  0  0  0  0  0  0  0  0  0  0  0
    0.5723    0.6143    0.0824 C   0  0  0  0  0  0  0  0  0  0  0  0
    1.9849    0.6181    0.1899 C   0  0  0  0  0  0  0  0  0  0  0  0
    2.7542   -0.1551   -0.6277 C   0  0  0  0  0  0  0  0  0  0  0  0
    4.2063   -0.1887   -0.5264 C   0  0  0  0  0  0  0  0  0  0  0  0
    5.0445   -0.4790   -1.5568 C   0  0  0  0  0  0  0  0  0  0  0  0
    6.7129   -0.4245   -1.1102 S   0  0  0  0  0  0  0  0  0  0  0  0
    6.3005   -0.0094    0.5211 C   0  0  0  0  0  0  0  0  0  0  0  0
    7.2624    0.2536    1.4512 N   0  0  0  0  0  0  0  0  0  0  0  0
    4.9333    0.0841    0.6882 C   0  0  0  0  0  0  0  0  0  0  0  0
    4.3916    0.3441    1.9502 C   0  0  0  0  0  0  0  0  0  0  0  0
    4.0149    0.5458    3.0186 N   0  0  0  0  0  0  0  0  0  0  0  0
    2.1163   -0.9868   -1.6488 C   0  0  0  0  0  0  0  0  0  0  0  0
    2.6910   -1.6987   -2.4397 O   0  0  0  0  0  0  0  0  0  0  0  0
    0.7527   -0.9667   -1.7139 O   0  0  0  0  0  0  0  0  0  0  0  0
   -0.0134   -0.2074   -0.8942 C   0  0  0  0  0  0  0  0  0  0  0  0
   -1.3857   -0.2790   -1.0555 C   0  0  0  0  0  0  0  0  0  0  0  0
   -4.7554   -2.3656   -1.9752 H   0  0  0  0  0  0  0  0  0  0  0  0
   -5.1222   -1.9251   -0.3084 H   0  0  0  0  0  0  0  0  0  0  0  0
   -3.4560   -2.2566   -0.7828 H   0  0  0  0  0  0  0  0  0  0  0  0
   -5.1753    0.0990   -1.7051 H   0  0  0  0  0  0  0  0  0  0  0  0
   -3.5866   -0.2570   -2.3686 H   0  0  0  0  0  0  0  0  0  0  0  0
   -4.2032    2.0608    0.7574 H   0  0  0  0  0  0  0  0  0  0  0  0
   -5.4948    1.0441    0.1332 H   0  0  0  0  0  0  0  0  0  0  0  0
   -3.5419    0.1737    2.3202 H   0  0  0  0  0  0  0  0  0  0  0  0
   -5.1913    0.7492    2.5874 H   0  0  0  0  0  0  0  0  0  0  0  0
   -4.9076   -0.7624    1.7224 H   0  0  0  0  0  0  0  0  0  0  0  0
   -2.2597    1.9156    1.3740 H   0  0  0  0  0  0  0  0  0  0  0  0
    0.1378    2.0114    1.6443 H   0  0  0  0  0  0  0  0  0  0  0  0
    2.4393    1.2574    0.9326 H   0  0  0  0  0  0  0  0  0  0  0  0
    4.7836   -0.7258   -2.5642 H   0  0  0  0  0  0  0  0  0  0  0  0
    8.1855   -0.1076    1.2789 H   0  0  0  0  0  0  0  0  0  0  0  0
    6.9638    0.2670    2.4142 H   0  0  0  0  0  0  0  0  0  0  0  0
   -1.7459   -0.9470   -1.8179 H   0  0  0  0  0  0  0  0  0  0  0  0
  1  2  1  0  0  0  0
  2  3  1  0  0  0  0
  3  4  1  0  0  0  0
  4  5  1  0  0  0  0
  3  6  1  0  0  0  0
  6  7  2  0  0  0  0
  7  8  1  0  0  0  0
  8  9  2  0  0  0  0
  9 10  1  0  0  0  0
 10 11  2  0  0  0  0
 11 12  1  0  0  0  0
 12 13  2  0  0  0  0
 13 14  1  0  0  0  0
 14 15  1  0  0  0  0
 15 16  1  0  0  0  0
 15 17  2  0  0  0  0
 17 18  1  0  0  0  0
 18 19  3  0  0  0  0
 11 20  1  0  0  0  0
 20 21  2  0  0  0  0
 20 22  1  0  0  0  0
 22 23  1  0  0  0  0
 23 24  2  0  0  0  0
 24  6  1  0  0  0  0
 23  9  1  0  0  0  0
 17 12  1  0  0  0  0
  1 25  1  0  0  0  0
  1 26  1  0  0  0  0
  1 27  1  0  0  0  0
  2 28  1  0  0  0  0
  2 29  1  0  0  0  0
  4 30  1  0  0  0  0
  4 31  1  0  0  0  0
  5 32  1  0  0  0  0
  5 33  1  0  0  0  0
  5 34  1  0  0  0  0
  7 35  1  0  0  0  0
  8 36  1  0  0  0  0
 10 37  1  0  0  0  0
 13 38  1  0  0  0  0
 16 39  1  0  0  0  0
 16 40  1  0  0  0  0
 24 41  1  0  0  0  0
M  END
