
  xtb     03212211463D
 energy: -101.144319668402 gnorm: 0.000258958891 xtb: 6.4.1 (afa7bdf)
 57 62  0     0  0            999 V2000
    4.2223   -1.6537   -1.0386 C   0  0  0  0  0  0  0  0  0  0  0  0
    3.0284   -1.5320   -0.8799 C   0  0  0  0  0  0  0  0  0  0  0  0
    1.6535   -1.3153   -0.6892 C   0  0  0  0  0  0  0  0  0  0  0  0
    0.7154   -2.2685   -1.0745 C   0  0  0  0  0  0  0  0  0  0  0  0
   -0.6461   -2.0378   -0.8967 C   0  0  0  0  0  0  0  0  0  0  0  0
   -1.5991   -2.9921   -1.2875 C   0  0  0  0  0  0  0  0  0  0  0  0
   -2.4689   -3.7713   -1.6068 C   0  0  0  0  0  0  0  0  0  0  0  0
   -3.4475   -4.6822   -1.9842 C   0  0  0  0  0  0  0  0  0  0  0  0
   -4.8070   -4.5503   -1.8551 C   0  0  0  0  0  0  0  0  0  0  0  0
   -5.5104   -5.6654   -2.3442 C   0  0  0  0  0  0  0  0  0  0  0  0
   -4.6908   -6.6315   -2.8385 C   0  0  0  0  0  0  0  0  0  0  0  0
   -3.0306   -6.2086   -2.7216 S   0  0  0  0  0  0  0  0  0  0  0  0
   -1.0874   -0.8262   -0.3200 C   0  0  0  0  0  0  0  0  0  0  0  0
   -2.4540   -0.5827   -0.1344 C   0  0  0  0  0  0  0  0  0  0  0  0
   -3.6255   -0.3343    0.0478 C   0  0  0  0  0  0  0  0  0  0  0  0
   -4.9730   -0.0699    0.2484 C   0  0  0  0  0  0  0  0  0  0  0  0
   -5.5364    1.0522    0.8016 C   0  0  0  0  0  0  0  0  0  0  0  0
   -6.9403    0.9880    0.8551 C   0  0  0  0  0  0  0  0  0  0  0  0
   -7.4366   -0.1717    0.3474 C   0  0  0  0  0  0  0  0  0  0  0  0
   -6.1997   -1.2233   -0.2132 S   0  0  0  0  0  0  0  0  0  0  0  0
   -0.1452    0.1402    0.0743 C   0  0  0  0  0  0  0  0  0  0  0  0
   -0.5741    1.3459    0.6490 C   0  0  0  0  0  0  0  0  0  0  0  0
   -0.9109    2.3982    1.1439 C   0  0  0  0  0  0  0  0  0  0  0  0
   -1.3246    3.5968    1.7097 C   0  0  0  0  0  0  0  0  0  0  0  0
   -0.5446    4.6421    2.1343 C   0  0  0  0  0  0  0  0  0  0  0  0
   -1.2986    5.7071    2.6597 C   0  0  0  0  0  0  0  0  0  0  0  0
   -2.6373    5.4708    2.6332 C   0  0  0  0  0  0  0  0  0  0  0  0
   -3.0182    3.9353    1.9640 S   0  0  0  0  0  0  0  0  0  0  0  0
    1.2282   -0.1020   -0.1047 C   0  0  0  0  0  0  0  0  0  0  0  0
    2.1649    0.8537    0.3092 C   0  0  0  0  0  0  0  0  0  0  0  0
    2.9877    1.6589    0.6858 C   0  0  0  0  0  0  0  0  0  0  0  0
    3.9112    2.5999    1.1204 C   0  0  0  0  0  0  0  0  0  0  0  0
    5.2701    2.4576    1.2433 C   0  0  0  0  0  0  0  0  0  0  0  0
    5.9018    3.6208    1.7188 C   0  0  0  0  0  0  0  0  0  0  0  0
    5.0291    4.6362    1.9545 C   0  0  0  0  0  0  0  0  0  0  0  0
    3.4051    4.1994    1.6036 S   0  0  0  0  0  0  0  0  0  0  0  0
    5.5912   -1.8104   -1.2231 C   0  0  0  0  0  0  0  0  0  0  0  0
    6.5493   -0.8289   -1.2410 C   0  0  0  0  0  0  0  0  0  0  0  0
    7.8453   -1.3348   -1.4474 C   0  0  0  0  0  0  0  0  0  0  0  0
    7.8665   -2.6877   -1.5836 C   0  0  0  0  0  0  0  0  0  0  0  0
    6.3015   -3.3854   -1.4671 S   0  0  0  0  0  0  0  0  0  0  0  0
    1.0466   -3.1953   -1.5195 H   0  0  0  0  0  0  0  0  0  0  0  0
   -5.2676   -3.6799   -1.4235 H   0  0  0  0  0  0  0  0  0  0  0  0
   -6.5826   -5.7466   -2.3295 H   0  0  0  0  0  0  0  0  0  0  0  0
   -4.9597   -7.5759   -3.2690 H   0  0  0  0  0  0  0  0  0  0  0  0
   -4.9501    1.8827    1.1517 H   0  0  0  0  0  0  0  0  0  0  0  0
   -7.5576    1.7725    1.2553 H   0  0  0  0  0  0  0  0  0  0  0  0
   -8.4603   -0.4792    0.2657 H   0  0  0  0  0  0  0  0  0  0  0  0
    0.5283    4.6309    2.0640 H   0  0  0  0  0  0  0  0  0  0  0  0
   -0.8635    6.6132    3.0423 H   0  0  0  0  0  0  0  0  0  0  0  0
   -3.4328    6.1070    2.9674 H   0  0  0  0  0  0  0  0  0  0  0  0
    5.7808    1.5411    1.0075 H   0  0  0  0  0  0  0  0  0  0  0  0
    6.9623    3.7003    1.8796 H   0  0  0  0  0  0  0  0  0  0  0  0
    5.2386    5.6234    2.3159 H   0  0  0  0  0  0  0  0  0  0  0  0
    6.3141    0.2138   -1.1212 H   0  0  0  0  0  0  0  0  0  0  0  0
    8.7261   -0.7192   -1.4930 H   0  0  0  0  0  0  0  0  0  0  0  0
    8.7122   -3.3260   -1.7466 H   0  0  0  0  0  0  0  0  0  0  0  0
  1  2  3  0  0  0  0
  2  3  1  0  0  0  0
  3  4  2  0  0  0  0
  4  5  1  0  0  0  0
  5  6  1  0  0  0  0
  6  7  3  0  0  0  0
  7  8  1  0  0  0  0
  8  9  2  0  0  0  0
  9 10  1  0  0  0  0
 10 11  2  0  0  0  0
 11 12  1  0  0  0  0
  5 13  2  0  0  0  0
 13 14  1  0  0  0  0
 14 15  3  0  0  0  0
 15 16  1  0  0  0  0
 16 17  2  0  0  0  0
 17 18  1  0  0  0  0
 18 19  2  0  0  0  0
 19 20  1  0  0  0  0
 13 21  1  0  0  0  0
 21 22  1  0  0  0  0
 22 23  3  0  0  0  0
 23 24  1  0  0  0  0
 24 25  2  0  0  0  0
 25 26  1  0  0  0  0
 26 27  2  0  0  0  0
 27 28  1  0  0  0  0
 21 29  2  0  0  0  0
 29 30  1  0  0  0  0
 30 31  3  0  0  0  0
 31 32  1  0  0  0  0
 32 33  2  0  0  0  0
 33 34  1  0  0  0  0
 34 35  2  0  0  0  0
 35 36  1  0  0  0  0
  1 37  1  0  0  0  0
 37 38  2  0  0  0  0
 38 39  1  0  0  0  0
 39 40  2  0  0  0  0
 40 41  1  0  0  0  0
 29  3  1  0  0  0  0
 36 32  1  0  0  0  0
 41 37  1  0  0  0  0
 12  8  1  0  0  0  0
 20 16  1  0  0  0  0
 28 24  1  0  0  0  0
  4 42  1  0  0  0  0
  9 43  1  0  0  0  0
 10 44  1  0  0  0  0
 11 45  1  0  0  0  0
 17 46  1  0  0  0  0
 18 47  1  0  0  0  0
 19 48  1  0  0  0  0
 25 49  1  0  0  0  0
 26 50  1  0  0  0  0
 27 51  1  0  0  0  0
 33 52  1  0  0  0  0
 34 53  1  0  0  0  0
 35 54  1  0  0  0  0
 38 55  1  0  0  0  0
 39 56  1  0  0  0  0
 40 57  1  0  0  0  0
M  END
