
  xtb     03212210533D
 energy: -32.783633600981 gnorm: 0.000328315465 xtb: 6.4.1 (afa7bdf)
 20 20  0     0  0            999 V2000
   -3.6638   -0.3638   -0.2803 C   0  0  0  0  0  0  0  0  0  0  0  0
   -2.2272   -0.8238   -0.1184 C   0  0  0  0  0  0  0  0  0  0  0  0
   -1.9107   -1.9887   -0.0444 O   0  0  0  0  0  0  0  0  0  0  0  0
   -1.3561    0.2243   -0.0657 N   0  0  0  0  0  0  0  0  0  0  0  0
    0.0373    0.2103    0.0809 C   0  0  0  0  0  0  0  0  0  0  0  0
    0.7702   -0.9618    0.2285 C   0  0  0  0  0  0  0  0  0  0  0  0
    2.1438   -0.9046    0.3717 C   0  0  0  0  0  0  0  0  0  0  0  0
    2.8086    0.3150    0.3704 C   0  0  0  0  0  0  0  0  0  0  0  0
    4.1602    0.4089    0.5099 O   0  0  0  0  0  0  0  0  0  0  0  0
    2.0765    1.4891    0.2223 C   0  0  0  0  0  0  0  0  0  0  0  0
    0.7064    1.4334    0.0796 C   0  0  0  0  0  0  0  0  0  0  0  0
   -3.9581    0.2522    0.5672 H   0  0  0  0  0  0  0  0  0  0  0  0
   -4.3118   -1.2337   -0.3302 H   0  0  0  0  0  0  0  0  0  0  0  0
   -3.7735    0.2172   -1.1937 H   0  0  0  0  0  0  0  0  0  0  0  0
   -1.7538    1.1500   -0.1464 H   0  0  0  0  0  0  0  0  0  0  0  0
    0.2634   -1.9116    0.2299 H   0  0  0  0  0  0  0  0  0  0  0  0
    2.7053   -1.8222    0.4864 H   0  0  0  0  0  0  0  0  0  0  0  0
    4.5387   -0.4736    0.6031 H   0  0  0  0  0  0  0  0  0  0  0  0
    2.5983    2.4324    0.2216 H   0  0  0  0  0  0  0  0  0  0  0  0
    0.1461    2.3510   -0.0346 H   0  0  0  0  0  0  0  0  0  0  0  0
  1  2  1  0  0  0  0
  2  3  2  0  0  0  0
  2  4  1  0  0  0  0
  4  5  1  0  0  0  0
  5  6  2  0  0  0  0
  6  7  1  0  0  0  0
  7  8  2  0  0  0  0
  8  9  1  0  0  0  0
  8 10  1  0  0  0  0
 10 11  2  0  0  0  0
 11  5  1  0  0  0  0
  1 12  1  0  0  0  0
  1 13  1  0  0  0  0
  1 14  1  0  0  0  0
  4 15  1  0  0  0  0
  6 16  1  0  0  0  0
  7 17  1  0  0  0  0
  9 18  1  0  0  0  0
 10 19  1  0  0  0  0
 11 20  1  0  0  0  0
M  END
