
  xtb     03212211093D
 energy: -95.050516782483 gnorm: 0.000272090434 xtb: 6.4.1 (afa7bdf)
 55 58  0     0  0            999 V2000
    3.3747    2.6134    2.6253 C   0  0  0  0  0  0  0  0  0  0  0  0
    2.8873    3.1444    1.2849 C   0  0  0  0  0  0  0  0  0  0  0  0
    2.1638    2.1358    0.5809 O   0  0  0  0  0  0  0  0  0  0  0  0
    0.8282    2.1407    0.6949 C   0  0  0  0  0  0  0  0  0  0  0  0
    0.1993    2.9826    1.2866 O   0  0  0  0  0  0  0  0  0  0  0  0
    0.2096    0.9895    0.0276 C   0  0  0  0  0  0  0  0  0  0  0  0
    0.6509   -0.3550   -0.1128 C   0  0  0  0  0  0  0  0  0  0  0  0
    1.9187   -0.9473    0.2944 C   0  0  0  0  0  0  0  0  0  0  0  0
    3.1224   -0.4545   -0.0754 C   0  0  0  0  0  0  0  0  0  0  0  0
    4.3296   -1.0657    0.3860 C   0  0  0  0  0  0  0  0  0  0  0  0
    5.6069   -0.5945    0.0623 C   0  0  0  0  0  0  0  0  0  0  0  0
    6.7268   -1.2333    0.5425 C   0  0  0  0  0  0  0  0  0  0  0  0
    6.5968   -2.3583    1.3537 C   0  0  0  0  0  0  0  0  0  0  0  0
    5.3497   -2.8429    1.6874 C   0  0  0  0  0  0  0  0  0  0  0  0
    4.2117   -2.1980    1.2072 C   0  0  0  0  0  0  0  0  0  0  0  0
    3.0046   -2.6960    1.5573 O   0  0  0  0  0  0  0  0  0  0  0  0
    1.8236   -2.1353    1.1564 C   0  0  0  0  0  0  0  0  0  0  0  0
    0.8026   -2.6356    1.5481 O   0  0  0  0  0  0  0  0  0  0  0  0
   -0.3167   -1.0948   -0.6195 N   0  0  0  0  0  0  0  0  0  0  0  0
   -1.3595   -0.3003   -0.8201 N   0  0  0  0  0  0  0  0  0  0  0  0
   -2.5397   -0.8177   -1.3764 C   0  0  0  0  0  0  0  0  0  0  0  0
   -3.3408   -0.0440   -2.2050 C   0  0  0  0  0  0  0  0  0  0  0  0
   -4.5010   -0.5966   -2.7180 C   0  0  0  0  0  0  0  0  0  0  0  0
   -4.8457   -1.9035   -2.4228 C   0  0  0  0  0  0  0  0  0  0  0  0
   -4.0314   -2.6912   -1.6148 C   0  0  0  0  0  0  0  0  0  0  0  0
   -4.4098   -4.1036   -1.2942 C   0  0  0  0  0  0  0  0  0  0  0  0
   -2.8740   -2.1355   -1.0916 C   0  0  0  0  0  0  0  0  0  0  0  0
   -1.1020    0.9691   -0.4344 C   0  0  0  0  0  0  0  0  0  0  0  0
   -2.0644    2.1005   -0.4623 C   0  0  0  0  0  0  0  0  0  0  0  0
   -1.8935    3.1172   -1.0799 O   0  0  0  0  0  0  0  0  0  0  0  0
   -3.1183    1.8272    0.3040 O   0  0  0  0  0  0  0  0  0  0  0  0
   -4.1135    2.8463    0.4259 C   0  0  0  0  0  0  0  0  0  0  0  0
   -5.0991    2.8056   -0.7329 C   0  0  0  0  0  0  0  0  0  0  0  0
    3.9893    1.7276    2.4786 H   0  0  0  0  0  0  0  0  0  0  0  0
    2.5255    2.3513    3.2519 H   0  0  0  0  0  0  0  0  0  0  0  0
    3.9621    3.3754    3.1294 H   0  0  0  0  0  0  0  0  0  0  0  0
    2.2367    4.0132    1.4268 H   0  0  0  0  0  0  0  0  0  0  0  0
    3.7277    3.4102    0.6391 H   0  0  0  0  0  0  0  0  0  0  0  0
    3.1893    0.4045   -0.7253 H   0  0  0  0  0  0  0  0  0  0  0  0
    5.6939    0.2781   -0.5678 H   0  0  0  0  0  0  0  0  0  0  0  0
    7.7097   -0.8652    0.2910 H   0  0  0  0  0  0  0  0  0  0  0  0
    7.4794   -2.8558    1.7253 H   0  0  0  0  0  0  0  0  0  0  0  0
    5.2291   -3.7117    2.3143 H   0  0  0  0  0  0  0  0  0  0  0  0
   -3.0524    0.9634   -2.4615 H   0  0  0  0  0  0  0  0  0  0  0  0
   -5.1343   -0.0042   -3.3614 H   0  0  0  0  0  0  0  0  0  0  0  0
   -5.7536   -2.3227   -2.8314 H   0  0  0  0  0  0  0  0  0  0  0  0
   -4.8560   -4.5901   -2.1587 H   0  0  0  0  0  0  0  0  0  0  0  0
   -3.5415   -4.6721   -0.9732 H   0  0  0  0  0  0  0  0  0  0  0  0
   -5.1425   -4.1171   -0.4871 H   0  0  0  0  0  0  0  0  0  0  0  0
   -2.2140   -2.7082   -0.4585 H   0  0  0  0  0  0  0  0  0  0  0  0
   -3.6149    3.8196    0.4711 H   0  0  0  0  0  0  0  0  0  0  0  0
   -4.6112    2.6370    1.3744 H   0  0  0  0  0  0  0  0  0  0  0  0
   -5.8965    3.5213   -0.5543 H   0  0  0  0  0  0  0  0  0  0  0  0
   -5.5264    1.8098   -0.8273 H   0  0  0  0  0  0  0  0  0  0  0  0
   -4.5971    3.0665   -1.6612 H   0  0  0  0  0  0  0  0  0  0  0  0
  1  2  1  0  0  0  0
  2  3  1  0  0  0  0
  3  4  1  0  0  0  0
  4  5  2  0  0  0  0
  4  6  1  0  0  0  0
  6  7  1  0  0  0  0
  7  8  1  0  0  0  0
  8  9  2  0  0  0  0
  9 10  1  0  0  0  0
 10 11  2  0  0  0  0
 11 12  1  0  0  0  0
 12 13  2  0  0  0  0
 13 14  1  0  0  0  0
 14 15  2  0  0  0  0
 15 16  1  0  0  0  0
 16 17  1  0  0  0  0
 17 18  2  0  0  0  0
  7 19  2  0  0  0  0
 19 20  1  0  0  0  0
 20 21  1  0  0  0  0
 21 22  2  0  0  0  0
 22 23  1  0  0  0  0
 23 24  2  0  0  0  0
 24 25  1  0  0  0  0
 25 26  1  0  0  0  0
 25 27  2  0  0  0  0
 20 28  1  0  0  0  0
 28 29  1  0  0  0  0
 29 30  2  0  0  0  0
 29 31  1  0  0  0  0
 31 32  1  0  0  0  0
 32 33  1  0  0  0  0
 28  6  2  0  0  0  0
 17  8  1  0  0  0  0
 27 21  1  0  0  0  0
 15 10  1  0  0  0  0
  1 34  1  0  0  0  0
  1 35  1  0  0  0  0
  1 36  1  0  0  0  0
  2 37  1  0  0  0  0
  2 38  1  0  0  0  0
  9 39  1  0  0  0  0
 11 40  1  0  0  0  0
 12 41  1  0  0  0  0
 13 42  1  0  0  0  0
 14 43  1  0  0  0  0
 22 44  1  0  0  0  0
 23 45  1  0  0  0  0
 24 46  1  0  0  0  0
 26 47  1  0  0  0  0
 26 48  1  0  0  0  0
 26 49  1  0  0  0  0
 27 50  1  0  0  0  0
 32 51  1  0  0  0  0
 32 52  1  0  0  0  0
 33 53  1  0  0  0  0
 33 54  1  0  0  0  0
 33 55  1  0  0  0  0
M  END
