
  xtb     03212211293D
 energy: -57.567120387843 gnorm: 0.000163561112 xtb: 6.4.1 (afa7bdf)
 30 32  0     0  0            999 V2000
   -0.0504    0.2916    1.8284 O   0  0  0  0  0  0  0  0  0  0  0  0
    0.4040    0.1403    0.6884 C   0  0  0  0  0  0  0  0  0  0  0  0
   -0.4345   -0.0562   -0.4964 C   0  0  0  0  0  0  0  0  0  0  0  0
   -1.8984   -0.0608   -0.3770 C   0  0  0  0  0  0  0  0  0  0  0  0
   -2.6889    0.5699   -1.3380 C   0  0  0  0  0  0  0  0  0  0  0  0
   -4.0628    0.5777   -1.2323 C   0  0  0  0  0  0  0  0  0  0  0  0
   -4.6821   -0.0488   -0.1538 C   0  0  0  0  0  0  0  0  0  0  0  0
   -6.0387   -0.0194   -0.0838 O   0  0  0  0  0  0  0  0  0  0  0  0
   -3.9023   -0.6772    0.8095 C   0  0  0  0  0  0  0  0  0  0  0  0
   -2.5255   -0.6810    0.6995 C   0  0  0  0  0  0  0  0  0  0  0  0
    0.1653   -0.2142   -1.6977 C   0  0  0  0  0  0  0  0  0  0  0  0
    1.4807   -0.2026   -1.9296 O   0  0  0  0  0  0  0  0  0  0  0  0
    2.3232   -0.0110   -0.8863 C   0  0  0  0  0  0  0  0  0  0  0  0
    3.6826    0.0071   -1.1571 C   0  0  0  0  0  0  0  0  0  0  0  0
    4.5792    0.2001   -0.1131 C   0  0  0  0  0  0  0  0  0  0  0  0
    5.8972    0.2136   -0.4058 O   0  0  0  0  0  0  0  0  0  0  0  0
    4.1197    0.3733    1.1889 C   0  0  0  0  0  0  0  0  0  0  0  0
    2.7614    0.3570    1.4709 C   0  0  0  0  0  0  0  0  0  0  0  0
    2.3543    0.5262    2.7258 O   0  0  0  0  0  0  0  0  0  0  0  0
    1.8316    0.1601    0.4176 C   0  0  0  0  0  0  0  0  0  0  0  0
   -2.2187    1.0807   -2.1651 H   0  0  0  0  0  0  0  0  0  0  0  0
   -4.6777    1.0696   -1.9691 H   0  0  0  0  0  0  0  0  0  0  0  0
   -6.3353   -0.4688    0.7170 H   0  0  0  0  0  0  0  0  0  0  0  0
   -4.3774   -1.1647    1.6508 H   0  0  0  0  0  0  0  0  0  0  0  0
   -1.9348   -1.1721    1.4555 H   0  0  0  0  0  0  0  0  0  0  0  0
   -0.3948   -0.3863   -2.6069 H   0  0  0  0  0  0  0  0  0  0  0  0
    4.0405   -0.1260   -2.1631 H   0  0  0  0  0  0  0  0  0  0  0  0
    6.4139    0.3554    0.3976 H   0  0  0  0  0  0  0  0  0  0  0  0
    4.8110    0.5246    2.0048 H   0  0  0  0  0  0  0  0  0  0  0  0
    1.3577    0.4879    2.7205 H   0  0  0  0  0  0  0  0  0  0  0  0
  1  2  2  0  0  0  0
  2  3  1  0  0  0  0
  3  4  1  0  0  0  0
  4  5  2  0  0  0  0
  5  6  1  0  0  0  0
  6  7  2  0  0  0  0
  7  8  1  0  0  0  0
  7  9  1  0  0  0  0
  9 10  2  0  0  0  0
  3 11  2  0  0  0  0
 11 12  1  0  0  0  0
 12 13  1  0  0  0  0
 13 14  2  0  0  0  0
 14 15  1  0  0  0  0
 15 16  1  0  0  0  0
 15 17  2  0  0  0  0
 17 18  1  0  0  0  0
 18 19  1  0  0  0  0
 18 20  2  0  0  0  0
 20  2  1  0  0  0  0
 10  4  1  0  0  0  0
 20 13  1  0  0  0  0
  5 21  1  0  0  0  0
  6 22  1  0  0  0  0
  8 23  1  0  0  0  0
  9 24  1  0  0  0  0
 10 25  1  0  0  0  0
 11 26  1  0  0  0  0
 14 27  1  0  0  0  0
 16 28  1  0  0  0  0
 17 29  1  0  0  0  0
 19 30  1  0  0  0  0
M  END
