
  xtb     03212211243D
 energy: -59.583719854195 gnorm: 0.000076151507 xtb: 6.4.1 (afa7bdf)
 38 41  0     0  0            999 V2000
   -0.1123    0.5836   -0.1031 C   0  0  0  0  0  0  0  0  0  0  0  0
   -1.3161    0.0274    0.1315 C   0  0  0  0  0  0  0  0  0  0  0  0
   -2.6092    0.6633    0.0324 C   0  0  0  0  0  0  0  0  0  0  0  0
   -2.7184    1.9938   -0.3370 C   0  0  0  0  0  0  0  0  0  0  0  0
   -3.9519    2.6363   -0.4413 C   0  0  0  0  0  0  0  0  0  0  0  0
   -5.1067    1.9536   -0.1756 C   0  0  0  0  0  0  0  0  0  0  0  0
   -5.0622    0.5973    0.2051 C   0  0  0  0  0  0  0  0  0  0  0  0
   -6.2552   -0.1054    0.4787 C   0  0  0  0  0  0  0  0  0  0  0  0
   -6.2295   -1.4193    0.8485 C   0  0  0  0  0  0  0  0  0  0  0  0
   -5.0001   -2.0818    0.9583 C   0  0  0  0  0  0  0  0  0  0  0  0
   -3.8270   -1.4264    0.6992 C   0  0  0  0  0  0  0  0  0  0  0  0
   -3.8097   -0.0692    0.3148 C   0  0  0  0  0  0  0  0  0  0  0  0
    1.0892   -0.1766    0.0375 C   0  0  0  0  0  0  0  0  0  0  0  0
    1.1929   -1.4354    0.3890 N   0  0  0  0  0  0  0  0  0  0  0  0
    2.5163   -1.7036    0.3821 C   0  0  0  0  0  0  0  0  0  0  0  0
    3.2109   -0.5725    0.0167 C   0  0  0  0  0  0  0  0  0  0  0  0
    4.6190   -0.2978   -0.1498 C   0  0  0  0  0  0  0  0  0  0  0  0
    5.0486    0.9727   -0.5381 C   0  0  0  0  0  0  0  0  0  0  0  0
    6.3950    1.2352   -0.6971 C   0  0  0  0  0  0  0  0  0  0  0  0
    7.3313    0.2391   -0.4725 C   0  0  0  0  0  0  0  0  0  0  0  0
    6.9131   -1.0251   -0.0867 C   0  0  0  0  0  0  0  0  0  0  0  0
    5.5691   -1.2965    0.0748 C   0  0  0  0  0  0  0  0  0  0  0  0
    2.2870    0.3999   -0.2018 O   0  0  0  0  0  0  0  0  0  0  0  0
    0.0292    1.6102   -0.4045 H   0  0  0  0  0  0  0  0  0  0  0  0
   -1.2860   -1.0103    0.4251 H   0  0  0  0  0  0  0  0  0  0  0  0
   -1.8273    2.5615   -0.5533 H   0  0  0  0  0  0  0  0  0  0  0  0
   -3.9851    3.6759   -0.7331 H   0  0  0  0  0  0  0  0  0  0  0  0
   -6.0679    2.4409   -0.2530 H   0  0  0  0  0  0  0  0  0  0  0  0
   -7.1938    0.4230    0.3884 H   0  0  0  0  0  0  0  0  0  0  0  0
   -7.1460   -1.9514    1.0566 H   0  0  0  0  0  0  0  0  0  0  0  0
   -4.9818   -3.1215    1.2508 H   0  0  0  0  0  0  0  0  0  0  0  0
   -2.9031   -1.9734    0.7955 H   0  0  0  0  0  0  0  0  0  0  0  0
    2.8819   -2.6769    0.6359 H   0  0  0  0  0  0  0  0  0  0  0  0
    4.3160    1.7463   -0.7123 H   0  0  0  0  0  0  0  0  0  0  0  0
    6.7172    2.2214   -0.9979 H   0  0  0  0  0  0  0  0  0  0  0  0
    8.3837    0.4461   -0.5973 H   0  0  0  0  0  0  0  0  0  0  0  0
    7.6411   -1.8033    0.0891 H   0  0  0  0  0  0  0  0  0  0  0  0
    5.2475   -2.2815    0.3751 H   0  0  0  0  0  0  0  0  0  0  0  0
  1  2  2  0  0  0  0
  2  3  1  0  0  0  0
  3  4  2  0  0  0  0
  4  5  1  0  0  0  0
  5  6  2  0  0  0  0
  6  7  1  0  0  0  0
  7  8  2  0  0  0  0
  8  9  1  0  0  0  0
  9 10  2  0  0  0  0
 10 11  1  0  0  0  0
 11 12  2  0  0  0  0
  1 13  1  0  0  0  0
 13 14  2  0  0  0  0
 14 15  1  0  0  0  0
 15 16  2  0  0  0  0
 16 17  1  0  0  0  0
 17 18  2  0  0  0  0
 18 19  1  0  0  0  0
 19 20  2  0  0  0  0
 20 21  1  0  0  0  0
 21 22  2  0  0  0  0
 16 23  1  0  0  0  0
 12  3  1  0  0  0  0
 23 13  1  0  0  0  0
 12  7  1  0  0  0  0
 22 17  1  0  0  0  0
  1 24  1  0  0  0  0
  2 25  1  0  0  0  0
  4 26  1  0  0  0  0
  5 27  1  0  0  0  0
  6 28  1  0  0  0  0
  8 29  1  0  0  0  0
  9 30  1  0  0  0  0
 10 31  1  0  0  0  0
 11 32  1  0  0  0  0
 15 33  1  0  0  0  0
 18 34  1  0  0  0  0
 19 35  1  0  0  0  0
 20 36  1  0  0  0  0
 21 37  1  0  0  0  0
 22 38  1  0  0  0  0
M  END
