
  xtb     03212211243D
 energy: -64.453395892459 gnorm: 0.000080139577 xtb: 6.4.1 (afa7bdf)
 40 42  0     0  0            999 V2000
   -6.9777   -0.0968   -0.3856 C   0  0  0  0  0  0  0  0  0  0  0  0
   -5.7904    0.6487   -0.2834 O   0  0  0  0  0  0  0  0  0  0  0  0
   -4.6087   -0.0199   -0.2288 C   0  0  0  0  0  0  0  0  0  0  0  0
   -4.4653   -1.3979   -0.2659 C   0  0  0  0  0  0  0  0  0  0  0  0
   -3.2128   -1.9846   -0.2039 C   0  0  0  0  0  0  0  0  0  0  0  0
   -2.0735   -1.1961   -0.1030 C   0  0  0  0  0  0  0  0  0  0  0  0
   -0.7618   -1.7933   -0.0374 C   0  0  0  0  0  0  0  0  0  0  0  0
   -0.3320   -3.1016   -0.0535 C   0  0  0  0  0  0  0  0  0  0  0  0
    1.0154   -3.1307    0.0336 N   0  0  0  0  0  0  0  0  0  0  0  0
    1.3911   -1.8781    0.1004 C   0  0  0  0  0  0  0  0  0  0  0  0
    2.7430   -1.4284    0.2038 C   0  0  0  0  0  0  0  0  0  0  0  0
    3.0946   -0.1328    0.2705 C   0  0  0  0  0  0  0  0  0  0  0  0
    4.4400    0.3907    0.3758 C   0  0  0  0  0  0  0  0  0  0  0  0
    5.5746   -0.4254    0.4221 C   0  0  0  0  0  0  0  0  0  0  0  0
    6.8361    0.1258    0.5228 C   0  0  0  0  0  0  0  0  0  0  0  0
    6.9994    1.5013    0.5798 C   0  0  0  0  0  0  0  0  0  0  0  0
    5.8861    2.3246    0.5352 C   0  0  0  0  0  0  0  0  0  0  0  0
    4.6230    1.7762    0.4345 C   0  0  0  0  0  0  0  0  0  0  0  0
    0.3482   -1.0163    0.0613 O   0  0  0  0  0  0  0  0  0  0  0  0
   -2.2090    0.1977   -0.0649 C   0  0  0  0  0  0  0  0  0  0  0  0
   -3.4531    0.7913   -0.1261 C   0  0  0  0  0  0  0  0  0  0  0  0
   -3.6835    2.1319   -0.0960 O   0  0  0  0  0  0  0  0  0  0  0  0
   -2.5794    2.9959    0.0052 C   0  0  0  0  0  0  0  0  0  0  0  0
   -7.0016   -0.6942   -1.3032 H   0  0  0  0  0  0  0  0  0  0  0  0
   -7.7823    0.6362   -0.4133 H   0  0  0  0  0  0  0  0  0  0  0  0
   -7.1174   -0.7541    0.4791 H   0  0  0  0  0  0  0  0  0  0  0  0
   -5.3329   -2.0331   -0.3439 H   0  0  0  0  0  0  0  0  0  0  0  0
   -3.1267   -3.0584   -0.2344 H   0  0  0  0  0  0  0  0  0  0  0  0
   -0.9008   -4.0053   -0.1212 H   0  0  0  0  0  0  0  0  0  0  0  0
    3.4630   -2.2310    0.2236 H   0  0  0  0  0  0  0  0  0  0  0  0
    2.3073    0.6106    0.2443 H   0  0  0  0  0  0  0  0  0  0  0  0
    5.4674   -1.4978    0.3790 H   0  0  0  0  0  0  0  0  0  0  0  0
    7.7014   -0.5202    0.5572 H   0  0  0  0  0  0  0  0  0  0  0  0
    7.9883    1.9279    0.6585 H   0  0  0  0  0  0  0  0  0  0  0  0
    6.0055    3.3974    0.5791 H   0  0  0  0  0  0  0  0  0  0  0  0
    3.7585    2.4244    0.4002 H   0  0  0  0  0  0  0  0  0  0  0  0
   -1.3149    0.7943    0.0135 H   0  0  0  0  0  0  0  0  0  0  0  0
   -1.9040    2.8895   -0.8503 H   0  0  0  0  0  0  0  0  0  0  0  0
   -2.0204    2.8294    0.9321 H   0  0  0  0  0  0  0  0  0  0  0  0
   -2.9950    4.0023    0.0120 H   0  0  0  0  0  0  0  0  0  0  0  0
  1  2  1  0  0  0  0
  2  3  1  0  0  0  0
  3  4  2  0  0  0  0
  4  5  1  0  0  0  0
  5  6  2  0  0  0  0
  6  7  1  0  0  0  0
  7  8  2  0  0  0  0
  8  9  1  0  0  0  0
  9 10  2  0  0  0  0
 10 11  1  0  0  0  0
 11 12  2  0  0  0  0
 12 13  1  0  0  0  0
 13 14  2  0  0  0  0
 14 15  1  0  0  0  0
 15 16  2  0  0  0  0
 16 17  1  0  0  0  0
 17 18  2  0  0  0  0
 10 19  1  0  0  0  0
  6 20  1  0  0  0  0
 20 21  2  0  0  0  0
 21 22  1  0  0  0  0
 22 23  1  0  0  0  0
 21  3  1  0  0  0  0
 19  7  1  0  0  0  0
 18 13  1  0  0  0  0
  1 24  1  0  0  0  0
  1 25  1  0  0  0  0
  1 26  1  0  0  0  0
  4 27  1  0  0  0  0
  5 28  1  0  0  0  0
  8 29  1  0  0  0  0
 11 30  1  0  0  0  0
 12 31  1  0  0  0  0
 14 32  1  0  0  0  0
 15 33  1  0  0  0  0
 16 34  1  0  0  0  0
 17 35  1  0  0  0  0
 18 36  1  0  0  0  0
 20 37  1  0  0  0  0
 23 38  1  0  0  0  0
 23 39  1  0  0  0  0
 23 40  1  0  0  0  0
M  END
