
  xtb     03212212253D
 energy: -59.337993713538 gnorm: 0.000068145801 xtb: 6.4.1 (afa7bdf)
 30 32  0     0  0            999 V2000
   -3.3610   -2.6881    0.2176 O   0  0  0  0  0  0  0  0  0  0  0  0
   -2.5054   -1.8191    0.2709 C   0  0  0  0  0  0  0  0  0  0  0  0
   -1.0890   -2.1247    0.2632 C   0  0  0  0  0  0  0  0  0  0  0  0
   -0.1064   -1.1894    0.3066 C   0  0  0  0  0  0  0  0  0  0  0  0
    1.2094   -1.5525    0.2798 N   0  0  0  0  0  0  0  0  0  0  0  0
    2.3053   -0.7672   -0.0549 C   0  0  0  0  0  0  0  0  0  0  0  0
    2.2120    0.2845   -0.9663 C   0  0  0  0  0  0  0  0  0  0  0  0
    3.3287    1.0277   -1.2901 C   0  0  0  0  0  0  0  0  0  0  0  0
    4.5563    0.7169   -0.7307 C   0  0  0  0  0  0  0  0  0  0  0  0
    5.6408    1.4384   -1.0594 F   0  0  0  0  0  0  0  0  0  0  0  0
    4.6621   -0.3510    0.1514 C   0  0  0  0  0  0  0  0  0  0  0  0
    5.8497   -0.6785    0.6848 F   0  0  0  0  0  0  0  0  0  0  0  0
    3.5474   -1.0923    0.4883 C   0  0  0  0  0  0  0  0  0  0  0  0
   -0.4442    0.2368    0.6027 C   0  0  0  0  0  0  0  0  0  0  0  0
    0.3849    1.0135    1.0315 O   0  0  0  0  0  0  0  0  0  0  0  0
   -1.8625    0.6003    0.4377 C   0  0  0  0  0  0  0  0  0  0  0  0
   -2.2202    1.9463    0.4646 C   0  0  0  0  0  0  0  0  0  0  0  0
   -3.5460    2.3202    0.3370 C   0  0  0  0  0  0  0  0  0  0  0  0
   -4.5283    1.3522    0.1929 C   0  0  0  0  0  0  0  0  0  0  0  0
   -4.1835    0.0112    0.1759 C   0  0  0  0  0  0  0  0  0  0  0  0
   -2.8543   -0.3759    0.2921 C   0  0  0  0  0  0  0  0  0  0  0  0
   -0.8361   -3.1738    0.1819 H   0  0  0  0  0  0  0  0  0  0  0  0
    1.4078   -2.5234    0.4832 H   0  0  0  0  0  0  0  0  0  0  0  0
    1.2650    0.5181   -1.4256 H   0  0  0  0  0  0  0  0  0  0  0  0
    3.2661    1.8481   -1.9865 H   0  0  0  0  0  0  0  0  0  0  0  0
    3.6542   -1.9112    1.1826 H   0  0  0  0  0  0  0  0  0  0  0  0
   -1.4409    2.6841    0.5863 H   0  0  0  0  0  0  0  0  0  0  0  0
   -3.8145    3.3657    0.3553 H   0  0  0  0  0  0  0  0  0  0  0  0
   -5.5639    1.6429    0.0983 H   0  0  0  0  0  0  0  0  0  0  0  0
   -4.9330   -0.7596    0.0744 H   0  0  0  0  0  0  0  0  0  0  0  0
  1  2  2  0  0  0  0
  2  3  1  0  0  0  0
  3  4  2  0  0  0  0
  4  5  1  0  0  0  0
  5  6  1  0  0  0  0
  6  7  2  0  0  0  0
  7  8  1  0  0  0  0
  8  9  2  0  0  0  0
  9 10  1  0  0  0  0
  9 11  1  0  0  0  0
 11 12  1  0  0  0  0
 11 13  2  0  0  0  0
  4 14  1  0  0  0  0
 14 15  2  0  0  0  0
 14 16  1  0  0  0  0
 16 17  2  0  0  0  0
 17 18  1  0  0  0  0
 18 19  2  0  0  0  0
 19 20  1  0  0  0  0
 20 21  2  0  0  0  0
 21  2  1  0  0  0  0
 13  6  1  0  0  0  0
 21 16  1  0  0  0  0
  3 22  1  0  0  0  0
  5 23  1  0  0  0  0
  7 24  1  0  0  0  0
  8 25  1  0  0  0  0
 13 26  1  0  0  0  0
 17 27  1  0  0  0  0
 18 28  1  0  0  0  0
 19 29  1  0  0  0  0
 20 30  1  0  0  0  0
M  END
