
  xtb     03212211093D
 energy: -85.541103006689 gnorm: 0.000174706026 xtb: 6.4.1 (afa7bdf)
 46 49  0     0  0            999 V2000
    0.9653   -1.8776   -3.6448 C   0  0  0  0  0  0  0  0  0  0  0  0
    0.7546   -1.3816   -2.3315 O   0  0  0  0  0  0  0  0  0  0  0  0
   -0.4752   -0.9048   -2.0821 C   0  0  0  0  0  0  0  0  0  0  0  0
   -1.3645   -0.9026   -2.8996 O   0  0  0  0  0  0  0  0  0  0  0  0
   -0.6257   -0.3632   -0.7325 C   0  0  0  0  0  0  0  0  0  0  0  0
    0.3140    0.0383    0.2578 C   0  0  0  0  0  0  0  0  0  0  0  0
    1.7649   -0.0942    0.2538 C   0  0  0  0  0  0  0  0  0  0  0  0
    2.3971   -1.2641    0.0086 C   0  0  0  0  0  0  0  0  0  0  0  0
    3.8246   -1.3332    0.0187 C   0  0  0  0  0  0  0  0  0  0  0  0
    4.5444   -2.5068   -0.2324 C   0  0  0  0  0  0  0  0  0  0  0  0
    5.9199   -2.4999   -0.2017 C   0  0  0  0  0  0  0  0  0  0  0  0
    6.6074   -1.3222    0.0827 C   0  0  0  0  0  0  0  0  0  0  0  0
    5.9221   -0.1527    0.3353 C   0  0  0  0  0  0  0  0  0  0  0  0
    4.5291   -0.1528    0.3035 C   0  0  0  0  0  0  0  0  0  0  0  0
    3.8892    1.0116    0.5532 O   0  0  0  0  0  0  0  0  0  0  0  0
    2.5276    1.1294    0.5433 C   0  0  0  0  0  0  0  0  0  0  0  0
    2.0542    2.2155    0.7492 O   0  0  0  0  0  0  0  0  0  0  0  0
   -0.3130    0.6282    1.2548 N   0  0  0  0  0  0  0  0  0  0  0  0
   -1.6123    0.6241    0.9699 N   0  0  0  0  0  0  0  0  0  0  0  0
   -2.5200    1.2156    1.8627 C   0  0  0  0  0  0  0  0  0  0  0  0
   -3.8378    0.7841    1.9463 C   0  0  0  0  0  0  0  0  0  0  0  0
   -4.6986    1.4052    2.8340 C   0  0  0  0  0  0  0  0  0  0  0  0
   -4.2493    2.4388    3.6390 C   0  0  0  0  0  0  0  0  0  0  0  0
   -2.9285    2.8518    3.5634 C   0  0  0  0  0  0  0  0  0  0  0  0
   -2.0592    2.2449    2.6771 C   0  0  0  0  0  0  0  0  0  0  0  0
   -1.8555    0.0419   -0.2227 C   0  0  0  0  0  0  0  0  0  0  0  0
   -3.1754   -0.1292   -0.8924 C   0  0  0  0  0  0  0  0  0  0  0  0
   -3.7813   -1.1657   -0.9363 O   0  0  0  0  0  0  0  0  0  0  0  0
   -3.5773    1.0171   -1.4330 O   0  0  0  0  0  0  0  0  0  0  0  0
   -4.7803    0.9567   -2.1894 C   0  0  0  0  0  0  0  0  0  0  0  0
    0.2636   -2.6856   -3.8624 H   0  0  0  0  0  0  0  0  0  0  0  0
    0.8213   -1.0823   -4.3788 H   0  0  0  0  0  0  0  0  0  0  0  0
    1.9901   -2.2397   -3.6702 H   0  0  0  0  0  0  0  0  0  0  0  0
    1.8341   -2.1638   -0.1893 H   0  0  0  0  0  0  0  0  0  0  0  0
    4.0001   -3.4135   -0.4503 H   0  0  0  0  0  0  0  0  0  0  0  0
    6.4702   -3.4075   -0.3969 H   0  0  0  0  0  0  0  0  0  0  0  0
    7.6864   -1.3240    0.1058 H   0  0  0  0  0  0  0  0  0  0  0  0
    6.4367    0.7683    0.5574 H   0  0  0  0  0  0  0  0  0  0  0  0
   -4.1839   -0.0408    1.3439 H   0  0  0  0  0  0  0  0  0  0  0  0
   -5.7234    1.0725    2.9013 H   0  0  0  0  0  0  0  0  0  0  0  0
   -4.9276    2.9176    4.3288 H   0  0  0  0  0  0  0  0  0  0  0  0
   -2.5751    3.6531    4.1940 H   0  0  0  0  0  0  0  0  0  0  0  0
   -1.0274    2.5476    2.5958 H   0  0  0  0  0  0  0  0  0  0  0  0
   -4.9452    1.9588   -2.5756 H   0  0  0  0  0  0  0  0  0  0  0  0
   -5.6122    0.6462   -1.5535 H   0  0  0  0  0  0  0  0  0  0  0  0
   -4.6679    0.2405   -3.0050 H   0  0  0  0  0  0  0  0  0  0  0  0
  1  2  1  0  0  0  0
  2  3  1  0  0  0  0
  3  4  2  0  0  0  0
  3  5  1  0  0  0  0
  5  6  1  0  0  0  0
  6  7  1  0  0  0  0
  7  8  2  0  0  0  0
  8  9  1  0  0  0  0
  9 10  2  0  0  0  0
 10 11  1  0  0  0  0
 11 12  2  0  0  0  0
 12 13  1  0  0  0  0
 13 14  2  0  0  0  0
 14 15  1  0  0  0  0
 15 16  1  0  0  0  0
 16 17  2  0  0  0  0
  6 18  2  0  0  0  0
 18 19  1  0  0  0  0
 19 20  1  0  0  0  0
 20 21  2  0  0  0  0
 21 22  1  0  0  0  0
 22 23  2  0  0  0  0
 23 24  1  0  0  0  0
 24 25  2  0  0  0  0
 19 26  1  0  0  0  0
 26 27  1  0  0  0  0
 27 28  2  0  0  0  0
 27 29  1  0  0  0  0
 29 30  1  0  0  0  0
 26  5  2  0  0  0  0
 16  7  1  0  0  0  0
 25 20  1  0  0  0  0
 14  9  1  0  0  0  0
  1 31  1  0  0  0  0
  1 32  1  0  0  0  0
  1 33  1  0  0  0  0
  8 34  1  0  0  0  0
 10 35  1  0  0  0  0
 11 36  1  0  0  0  0
 12 37  1  0  0  0  0
 13 38  1  0  0  0  0
 21 39  1  0  0  0  0
 22 40  1  0  0  0  0
 23 41  1  0  0  0  0
 24 42  1  0  0  0  0
 25 43  1  0  0  0  0
 30 44  1  0  0  0  0
 30 45  1  0  0  0  0
 30 46  1  0  0  0  0
M  END
