
  xtb     03212211383D
 energy: -65.292099065496 gnorm: 0.000235016750 xtb: 6.4.1 (afa7bdf)
 38 41  0     0  0            999 V2000
   -3.3799   -2.7719   -1.1287 C   0  0  0  0  0  0  0  0  0  0  0  0
   -2.5199   -2.0063   -0.2026 C   0  0  0  0  0  0  0  0  0  0  0  0
   -1.5157   -1.2338   -0.6278 N   0  0  0  0  0  4  0  0  0  0  0  0
   -0.9076   -0.6547    0.4668 C   0  0  0  0  0  0  0  0  0  0  0  0
    0.1930    0.1912    0.3285 C   0  0  0  0  0  0  0  0  0  0  0  0
    0.8117    0.7943    1.5157 C   0  0  0  0  0  0  0  0  0  0  0  0
    2.1776    0.6409    1.7522 C   0  0  0  0  0  0  0  0  0  0  0  0
    2.7635    1.2027    2.8677 C   0  0  0  0  0  0  0  0  0  0  0  0
    1.9858    1.9382    3.7632 C   0  0  0  0  0  0  0  0  0  0  0  0
    2.5828    2.5204    4.9053 C   0  0  0  0  0  0  0  0  0  0  0  0
    3.0668    2.9924    5.8309 N   0  0  0  0  0  0  0  0  0  0  0  0
    0.6190    2.0993    3.5316 C   0  0  0  0  0  0  0  0  0  0  0  0
    0.0403    1.5266    2.4178 C   0  0  0  0  0  0  0  0  0  0  0  0
    0.7061    0.4629   -0.9400 C   0  0  0  0  0  0  0  0  0  0  0  0
    1.7667    1.3082   -1.3423 C   0  0  0  0  0  0  0  0  0  0  0  0
    1.8408    1.2311   -2.7133 C   0  0  0  0  0  0  0  0  0  0  0  0
    0.8276    0.3540   -3.1418 C   0  0  0  0  0  0  0  0  0  0  0  0
    0.4909   -0.0533   -4.5217 C   0  0  0  0  0  0  0  0  0  0  0  0
    0.1557   -0.0928   -2.0765 N   0  0  0  0  0  0  0  0  0  0  0  0
   -1.0633   -1.0408   -2.0919 B   0  0  0  0  0  4  0  0  0  0  0  0
   -0.7085   -2.2607   -2.6399 F   0  0  0  0  0  0  0  0  0  0  0  0
   -2.0869   -0.4806   -2.8350 F   0  0  0  0  0  0  0  0  0  0  0  0
   -1.5755   -1.1145    1.6260 C   0  0  0  0  0  0  0  0  0  0  0  0
   -2.5816   -1.9507    1.2019 C   0  0  0  0  0  0  0  0  0  0  0  0
   -4.1414   -3.3212   -0.5826 H   0  0  0  0  0  0  0  0  0  0  0  0
   -3.8505   -2.0942   -1.8401 H   0  0  0  0  0  0  0  0  0  0  0  0
   -2.7701   -3.4641   -1.7087 H   0  0  0  0  0  0  0  0  0  0  0  0
    2.7716    0.0582    1.0646 H   0  0  0  0  0  0  0  0  0  0  0  0
    3.8198    1.0784    3.0548 H   0  0  0  0  0  0  0  0  0  0  0  0
    0.0236    2.6726    4.2266 H   0  0  0  0  0  0  0  0  0  0  0  0
   -1.0133    1.6614    2.2258 H   0  0  0  0  0  0  0  0  0  0  0  0
    2.3766    1.8997   -0.6879 H   0  0  0  0  0  0  0  0  0  0  0  0
    2.5313    1.7398   -3.3569 H   0  0  0  0  0  0  0  0  0  0  0  0
   -0.5327    0.2407   -4.7519 H   0  0  0  0  0  0  0  0  0  0  0  0
    1.1729    0.4007   -5.2347 H   0  0  0  0  0  0  0  0  0  0  0  0
    0.5340   -1.1384   -4.6070 H   0  0  0  0  0  0  0  0  0  0  0  0
   -1.3216   -0.8588    2.6360 H   0  0  0  0  0  0  0  0  0  0  0  0
   -3.2899   -2.4769    1.8112 H   0  0  0  0  0  0  0  0  0  0  0  0
  1  2  1  0  0  0  0
  2  3  2  0  0  0  0
  3  4  1  0  0  0  0
  4  5  2  0  0  0  0
  5  6  1  0  0  0  0
  6  7  2  0  0  0  0
  7  8  1  0  0  0  0
  8  9  2  0  0  0  0
  9 10  1  0  0  0  0
 10 11  3  0  0  0  0
  9 12  1  0  0  0  0
 12 13  2  0  0  0  0
  5 14  1  0  0  0  0
 14 15  2  0  0  0  0
 15 16  1  0  0  0  0
 16 17  2  0  0  0  0
 17 18  1  0  0  0  0
 17 19  1  0  0  0  0
 19 20  1  0  0  0  0
 20 21  1  0  0  0  0
 20 22  1  0  0  0  0
  4 23  1  0  0  0  0
 23 24  2  0  0  0  0
 24  2  1  0  0  0  0
 20  3  1  0  0  0  0
 13  6  1  0  0  0  0
 19 14  1  0  0  0  0
  1 25  1  0  0  0  0
  1 26  1  0  0  0  0
  1 27  1  0  0  0  0
  7 28  1  0  0  0  0
  8 29  1  0  0  0  0
 12 30  1  0  0  0  0
 13 31  1  0  0  0  0
 15 32  1  0  0  0  0
 16 33  1  0  0  0  0
 18 34  1  0  0  0  0
 18 35  1  0  0  0  0
 18 36  1  0  0  0  0
 23 37  1  0  0  0  0
 24 38  1  0  0  0  0
M  CHG  1   3   1
M  CHG  1  20  -1
M  END
