
  xtb     03212211263D
 energy: -58.523233197279 gnorm: 0.000278051904 xtb: 6.4.1 (afa7bdf)
 36 39  0     0  0            999 V2000
   -0.2127   -1.3967   -0.3762 C   0  0  0  0  0  0  0  0  0  0  0  0
   -1.4165   -1.3554   -0.2602 C   0  0  0  0  0  0  0  0  0  0  0  0
   -2.8165   -1.3497   -0.1355 C   0  0  0  0  0  0  0  0  0  0  0  0
   -3.5296   -2.5023   -0.4045 C   0  0  0  0  0  0  0  0  0  0  0  0
   -4.9217   -2.5189   -0.2840 C   0  0  0  0  0  0  0  0  0  0  0  0
   -5.5995   -1.3934    0.1014 C   0  0  0  0  0  0  0  0  0  0  0  0
   -4.9092   -0.1958    0.3839 C   0  0  0  0  0  0  0  0  0  0  0  0
   -5.5853    0.9771    0.7812 C   0  0  0  0  0  0  0  0  0  0  0  0
   -4.8953    2.1260    1.0490 C   0  0  0  0  0  0  0  0  0  0  0  0
   -3.4975    2.1550    0.9319 C   0  0  0  0  0  0  0  0  0  0  0  0
   -2.8117    1.0351    0.5492 C   0  0  0  0  0  0  0  0  0  0  0  0
   -3.4959   -0.1631    0.2668 C   0  0  0  0  0  0  0  0  0  0  0  0
    1.1774   -1.4252   -0.5075 C   0  0  0  0  0  0  0  0  0  0  0  0
    1.8987   -2.4355   -0.9199 N   0  0  0  0  0  0  0  0  0  0  0  0
    3.1767   -1.9981   -0.8813 C   0  0  0  0  0  0  0  0  0  0  0  0
    3.2023   -0.6964   -0.4333 C   0  0  0  0  0  0  0  0  0  0  0  0
    4.2770    0.2413   -0.1995 C   0  0  0  0  0  0  0  0  0  0  0  0
    4.0022    1.5143    0.3035 C   0  0  0  0  0  0  0  0  0  0  0  0
    5.0285    2.4104    0.5294 C   0  0  0  0  0  0  0  0  0  0  0  0
    6.3391    2.0527    0.2576 C   0  0  0  0  0  0  0  0  0  0  0  0
    6.6196    0.7907   -0.2429 C   0  0  0  0  0  0  0  0  0  0  0  0
    5.6001   -0.1119   -0.4714 C   0  0  0  0  0  0  0  0  0  0  0  0
    1.9159   -0.3357   -0.1954 O   0  0  0  0  0  0  0  0  0  0  0  0
   -3.0006   -3.3932   -0.7086 H   0  0  0  0  0  0  0  0  0  0  0  0
   -5.4579   -3.4316   -0.4988 H   0  0  0  0  0  0  0  0  0  0  0  0
   -6.6759   -1.4054    0.1950 H   0  0  0  0  0  0  0  0  0  0  0  0
   -6.6621    0.9483    0.8691 H   0  0  0  0  0  0  0  0  0  0  0  0
   -5.4209    3.0197    1.3523 H   0  0  0  0  0  0  0  0  0  0  0  0
   -2.9665    3.0708    1.1465 H   0  0  0  0  0  0  0  0  0  0  0  0
   -1.7354    1.0500    0.4566 H   0  0  0  0  0  0  0  0  0  0  0  0
    3.9842   -2.6372   -1.1722 H   0  0  0  0  0  0  0  0  0  0  0  0
    2.9797    1.7893    0.5145 H   0  0  0  0  0  0  0  0  0  0  0  0
    4.8061    3.3927    0.9196 H   0  0  0  0  0  0  0  0  0  0  0  0
    7.1402    2.7546    0.4349 H   0  0  0  0  0  0  0  0  0  0  0  0
    7.6406    0.5103   -0.4562 H   0  0  0  0  0  0  0  0  0  0  0  0
    5.8223   -1.0928   -0.8620 H   0  0  0  0  0  0  0  0  0  0  0  0
  1  2  3  0  0  0  0
  2  3  1  0  0  0  0
  3  4  2  0  0  0  0
  4  5  1  0  0  0  0
  5  6  2  0  0  0  0
  6  7  1  0  0  0  0
  7  8  2  0  0  0  0
  8  9  1  0  0  0  0
  9 10  2  0  0  0  0
 10 11  1  0  0  0  0
 11 12  2  0  0  0  0
  1 13  1  0  0  0  0
 13 14  2  0  0  0  0
 14 15  1  0  0  0  0
 15 16  2  0  0  0  0
 16 17  1  0  0  0  0
 17 18  2  0  0  0  0
 18 19  1  0  0  0  0
 19 20  2  0  0  0  0
 20 21  1  0  0  0  0
 21 22  2  0  0  0  0
 16 23  1  0  0  0  0
 12  3  1  0  0  0  0
 23 13  1  0  0  0  0
 12  7  1  0  0  0  0
 22 17  1  0  0  0  0
  4 24  1  0  0  0  0
  5 25  1  0  0  0  0
  6 26  1  0  0  0  0
  8 27  1  0  0  0  0
  9 28  1  0  0  0  0
 10 29  1  0  0  0  0
 11 30  1  0  0  0  0
 15 31  1  0  0  0  0
 18 32  1  0  0  0  0
 19 33  1  0  0  0  0
 20 34  1  0  0  0  0
 21 35  1  0  0  0  0
 22 36  1  0  0  0  0
M  END
