
  xtb     03212210523D
 energy: -66.276064988544 gnorm: 0.000136908091 xtb: 6.4.1 (afa7bdf)
 39 40  0     0  0            999 V2000
    2.6142    0.8788   -0.0011 C   0  0  0  0  0  0  0  0  0  0  0  0
    3.3349   -0.3576    0.5125 C   0  0  0  0  0  0  0  0  0  0  0  0
    2.5534   -1.5396    0.3333 O   0  0  0  0  0  0  0  0  0  0  0  0
    1.6395   -1.8157    1.2602 C   0  0  0  0  0  0  0  0  0  0  0  0
    1.4308   -1.1643    2.2471 O   0  0  0  0  0  0  0  0  0  0  0  0
    0.9750   -3.1552    0.9939 C   0  0  0  0  0  0  0  0  0  0  0  0
    0.7391   -3.4932   -0.7717 S   0  0  0  0  0  0  0  0  0  0  0  0
   -0.1114   -2.0318   -1.2045 C   0  0  0  0  0  0  0  0  0  0  0  0
   -0.2913   -1.1419   -0.2524 N   0  0  0  0  0  0  0  0  0  0  0  0
   -0.9294    0.0013   -0.4861 C   0  0  0  0  0  0  0  0  0  0  0  0
   -0.9942    0.9015    0.6741 C   0  0  0  0  0  0  0  0  0  0  0  0
   -0.7130    2.2617    0.5601 C   0  0  0  0  0  0  0  0  0  0  0  0
   -0.7242    3.0688    1.6827 C   0  0  0  0  0  0  0  0  0  0  0  0
   -1.0168    2.5315    2.9253 C   0  0  0  0  0  0  0  0  0  0  0  0
   -1.2857    1.1780    3.0466 C   0  0  0  0  0  0  0  0  0  0  0  0
   -1.2678    0.3651    1.9301 C   0  0  0  0  0  0  0  0  0  0  0  0
   -1.4947    0.2936   -1.7375 C   0  0  0  0  0  0  0  0  0  0  0  0
   -2.3225    1.5100   -2.0041 C   0  0  0  0  0  0  0  0  0  0  0  0
   -1.2888   -0.6437   -2.7577 C   0  0  0  0  0  0  0  0  0  0  0  0
   -1.8088   -0.4102   -4.0554 C   0  0  0  0  0  0  0  0  0  0  0  0
   -2.2326   -0.2068   -5.0996 N   0  0  0  0  0  0  0  0  0  0  0  0
   -0.5712   -1.8255   -2.5175 C   0  0  0  0  0  0  0  0  0  0  0  0
   -0.3390   -2.7670   -3.5393 C   0  0  0  0  0  0  0  0  0  0  0  0
   -0.1451   -3.5338   -4.3691 N   0  0  0  0  0  0  0  0  0  0  0  0
    3.2692    1.7414    0.0818 H   0  0  0  0  0  0  0  0  0  0  0  0
    1.7190    1.0566    0.5895 H   0  0  0  0  0  0  0  0  0  0  0  0
    2.3340    0.7454   -1.0439 H   0  0  0  0  0  0  0  0  0  0  0  0
    3.5628   -0.2453    1.5776 H   0  0  0  0  0  0  0  0  0  0  0  0
    4.2523   -0.5429   -0.0500 H   0  0  0  0  0  0  0  0  0  0  0  0
    0.0161   -3.1965    1.5085 H   0  0  0  0  0  0  0  0  0  0  0  0
    1.6233   -3.9539    1.3572 H   0  0  0  0  0  0  0  0  0  0  0  0
   -0.4451    2.6809   -0.3981 H   0  0  0  0  0  0  0  0  0  0  0  0
   -0.4959    4.1199    1.5864 H   0  0  0  0  0  0  0  0  0  0  0  0
   -1.0246    3.1660    3.7989 H   0  0  0  0  0  0  0  0  0  0  0  0
   -1.5000    0.7529    4.0150 H   0  0  0  0  0  0  0  0  0  0  0  0
   -1.4667   -0.6910    2.0176 H   0  0  0  0  0  0  0  0  0  0  0  0
   -1.7260    2.2813   -2.4932 H   0  0  0  0  0  0  0  0  0  0  0  0
   -2.7235    1.9168   -1.0791 H   0  0  0  0  0  0  0  0  0  0  0  0
   -3.1451    1.2644   -2.6746 H   0  0  0  0  0  0  0  0  0  0  0  0
  1  2  1  0  0  0  0
  2  3  1  0  0  0  0
  3  4  1  0  0  0  0
  4  5  2  0  0  0  0
  4  6  1  0  0  0  0
  6  7  1  0  0  0  0
  7  8  1  0  0  0  0
  8  9  2  0  0  0  0
  9 10  1  0  0  0  0
 10 11  1  0  0  0  0
 11 12  2  0  0  0  0
 12 13  1  0  0  0  0
 13 14  2  0  0  0  0
 14 15  1  0  0  0  0
 15 16  2  0  0  0  0
 10 17  2  0  0  0  0
 17 18  1  0  0  0  0
 17 19  1  0  0  0  0
 19 20  1  0  0  0  0
 20 21  3  0  0  0  0
 19 22  2  0  0  0  0
 22 23  1  0  0  0  0
 23 24  3  0  0  0  0
 22  8  1  0  0  0  0
 16 11  1  0  0  0  0
  1 25  1  0  0  0  0
  1 26  1  0  0  0  0
  1 27  1  0  0  0  0
  2 28  1  0  0  0  0
  2 29  1  0  0  0  0
  6 30  1  0  0  0  0
  6 31  1  0  0  0  0
 12 32  1  0  0  0  0
 13 33  1  0  0  0  0
 14 34  1  0  0  0  0
 15 35  1  0  0  0  0
 16 36  1  0  0  0  0
 18 37  1  0  0  0  0
 18 38  1  0  0  0  0
 18 39  1  0  0  0  0
M  END
