
  xtb     03212212183D
 energy: -47.869510308582 gnorm: 0.000169764000 xtb: 6.4.1 (afa7bdf)
 31 33  0     0  0            999 V2000
   -0.8377    1.7851    1.0484 C   0  0  0  0  0  0  0  0  0  0  0  0
   -0.3386    0.5297    0.4031 C   0  0  0  0  0  0  0  0  0  0  0  0
   -1.0923   -0.3942   -0.2225 C   0  0  0  0  0  0  0  0  0  0  0  0
   -2.5390   -0.4156   -0.3637 C   0  0  0  0  0  0  0  0  0  0  0  0
   -3.0897   -0.9252   -1.5429 C   0  0  0  0  0  0  0  0  0  0  0  0
   -4.4572   -0.9617   -1.7287 C   0  0  0  0  0  0  0  0  0  0  0  0
   -5.3069   -0.5133   -0.7298 C   0  0  0  0  0  0  0  0  0  0  0  0
   -4.7761   -0.0368    0.4571 C   0  0  0  0  0  0  0  0  0  0  0  0
   -3.4067    0.0155    0.6407 C   0  0  0  0  0  0  0  0  0  0  0  0
    1.0959    0.3577    0.4370 C   0  0  0  0  0  0  0  0  0  0  0  0
    1.9426    1.2068    0.9344 N   0  0  0  0  0  0  0  0  0  0  0  0
    3.1769    0.6393    0.7593 C   0  0  0  0  0  0  0  0  0  0  0  0
    4.4527    1.0785    1.0898 C   0  0  0  0  0  0  0  0  0  0  0  0
    5.5082    0.2499    0.7684 C   0  0  0  0  0  0  0  0  0  0  0  0
    5.3142   -0.9797    0.1380 C   0  0  0  0  0  0  0  0  0  0  0  0
    4.0524   -1.4349   -0.1994 C   0  0  0  0  0  0  0  0  0  0  0  0
    2.9946   -0.6067    0.1214 C   0  0  0  0  0  0  0  0  0  0  0  0
    1.6645   -0.7731   -0.0781 O   0  0  0  0  0  0  0  0  0  0  0  0
   -0.9867    1.6322    2.1166 H   0  0  0  0  0  0  0  0  0  0  0  0
   -0.0879    2.5635    0.9337 H   0  0  0  0  0  0  0  0  0  0  0  0
   -1.7759    2.1032    0.6015 H   0  0  0  0  0  0  0  0  0  0  0  0
   -0.5758   -1.2060   -0.7202 H   0  0  0  0  0  0  0  0  0  0  0  0
   -2.4300   -1.2778   -2.3230 H   0  0  0  0  0  0  0  0  0  0  0  0
   -4.8648   -1.3469   -2.6521 H   0  0  0  0  0  0  0  0  0  0  0  0
   -6.3769   -0.5466   -0.8719 H   0  0  0  0  0  0  0  0  0  0  0  0
   -5.4343    0.2942    1.2474 H   0  0  0  0  0  0  0  0  0  0  0  0
   -3.0083    0.3536    1.5836 H   0  0  0  0  0  0  0  0  0  0  0  0
    4.5984    2.0287    1.5768 H   0  0  0  0  0  0  0  0  0  0  0  0
    6.5149    0.5572    1.0097 H   0  0  0  0  0  0  0  0  0  0  0  0
    6.1725   -1.5924   -0.0928 H   0  0  0  0  0  0  0  0  0  0  0  0
    3.8968   -2.3841   -0.6865 H   0  0  0  0  0  0  0  0  0  0  0  0
  1  2  1  0  0  0  0
  2  3  2  0  0  0  0
  3  4  1  0  0  0  0
  4  5  2  0  0  0  0
  5  6  1  0  0  0  0
  6  7  2  0  0  0  0
  7  8  1  0  0  0  0
  8  9  2  0  0  0  0
  2 10  1  0  0  0  0
 10 11  2  0  0  0  0
 11 12  1  0  0  0  0
 12 13  2  0  0  0  0
 13 14  1  0  0  0  0
 14 15  2  0  0  0  0
 15 16  1  0  0  0  0
 16 17  2  0  0  0  0
 17 18  1  0  0  0  0
  9  4  1  0  0  0  0
 18 10  1  0  0  0  0
 17 12  1  0  0  0  0
  1 19  1  0  0  0  0
  1 20  1  0  0  0  0
  1 21  1  0  0  0  0
  3 22  1  0  0  0  0
  5 23  1  0  0  0  0
  6 24  1  0  0  0  0
  7 25  1  0  0  0  0
  8 26  1  0  0  0  0
  9 27  1  0  0  0  0
 13 28  1  0  0  0  0
 14 29  1  0  0  0  0
 15 30  1  0  0  0  0
 16 31  1  0  0  0  0
M  END
