
  xtb     03212211093D
 energy: -88.715190744452 gnorm: 0.000233521793 xtb: 6.4.1 (afa7bdf)
 49 52  0     0  0            999 V2000
    1.0427   -4.6132    0.2114 C   0  0  0  0  0  0  0  0  0  0  0  0
    0.3668   -3.3669    0.2687 O   0  0  0  0  0  0  0  0  0  0  0  0
    0.9743   -2.3383   -0.3436 C   0  0  0  0  0  0  0  0  0  0  0  0
    2.0477   -2.4357   -0.8875 O   0  0  0  0  0  0  0  0  0  0  0  0
    0.1672   -1.1192   -0.2379 C   0  0  0  0  0  0  0  0  0  0  0  0
    0.5831    0.2312   -0.0679 C   0  0  0  0  0  0  0  0  0  0  0  0
    1.9221    0.7927    0.0117 C   0  0  0  0  0  0  0  0  0  0  0  0
    2.9527    0.3761   -0.7624 C   0  0  0  0  0  0  0  0  0  0  0  0
    4.2413    0.9812   -0.6416 C   0  0  0  0  0  0  0  0  0  0  0  0
    5.3480    0.5952   -1.4067 C   0  0  0  0  0  0  0  0  0  0  0  0
    6.5577    1.2310   -1.2488 C   0  0  0  0  0  0  0  0  0  0  0  0
    6.6890    2.2671   -0.3267 C   0  0  0  0  0  0  0  0  0  0  0  0
    5.6143    2.6661    0.4397 C   0  0  0  0  0  0  0  0  0  0  0  0
    4.3877    2.0232    0.2871 C   0  0  0  0  0  0  0  0  0  0  0  0
    3.3559    2.4307    1.0601 O   0  0  0  0  0  0  0  0  0  0  0  0
    2.1111    1.8687    0.9991 C   0  0  0  0  0  0  0  0  0  0  0  0
    1.2780    2.2747    1.7658 O   0  0  0  0  0  0  0  0  0  0  0  0
   -0.4756    1.0054    0.0921 N   0  0  0  0  0  0  0  0  0  0  0  0
   -1.5480    0.2363    0.0365 N   0  0  0  0  0  0  0  0  0  0  0  0
   -2.8211    0.8199    0.1504 C   0  0  0  0  0  0  0  0  0  0  0  0
   -3.9035    0.3440   -0.5746 C   0  0  0  0  0  0  0  0  0  0  0  0
   -5.1330    0.9599   -0.4189 C   0  0  0  0  0  0  0  0  0  0  0  0
   -5.2729    2.0409    0.4319 C   0  0  0  0  0  0  0  0  0  0  0  0
   -4.1827    2.5392    1.1398 C   0  0  0  0  0  0  0  0  0  0  0  0
   -4.3428    3.7175    2.0490 C   0  0  0  0  0  0  0  0  0  0  0  0
   -2.9530    1.9185    0.9912 C   0  0  0  0  0  0  0  0  0  0  0  0
   -1.2240   -1.0638   -0.1547 C   0  0  0  0  0  0  0  0  0  0  0  0
   -2.1906   -2.1812   -0.1535 C   0  0  0  0  0  0  0  0  0  0  0  0
   -3.0507   -2.3429    0.6723 O   0  0  0  0  0  0  0  0  0  0  0  0
   -1.9755   -2.9997   -1.1890 O   0  0  0  0  0  0  0  0  0  0  0  0
   -2.7821   -4.1685   -1.2335 C   0  0  0  0  0  0  0  0  0  0  0  0
    2.0806   -4.4969    0.5301 H   0  0  0  0  0  0  0  0  0  0  0  0
    1.0287   -5.0030   -0.8090 H   0  0  0  0  0  0  0  0  0  0  0  0
    0.5085   -5.2808    0.8827 H   0  0  0  0  0  0  0  0  0  0  0  0
    2.8179   -0.4194   -1.4790 H   0  0  0  0  0  0  0  0  0  0  0  0
    5.2308   -0.2106   -2.1153 H   0  0  0  0  0  0  0  0  0  0  0  0
    7.4091    0.9293   -1.8394 H   0  0  0  0  0  0  0  0  0  0  0  0
    7.6408    2.7622   -0.2089 H   0  0  0  0  0  0  0  0  0  0  0  0
    5.6975    3.4643    1.1597 H   0  0  0  0  0  0  0  0  0  0  0  0
   -3.7868   -0.4817   -1.2594 H   0  0  0  0  0  0  0  0  0  0  0  0
   -5.9851    0.5963   -0.9731 H   0  0  0  0  0  0  0  0  0  0  0  0
   -6.2384    2.5123    0.5446 H   0  0  0  0  0  0  0  0  0  0  0  0
   -5.0275    3.4761    2.8611 H   0  0  0  0  0  0  0  0  0  0  0  0
   -3.3872    4.0098    2.4742 H   0  0  0  0  0  0  0  0  0  0  0  0
   -4.7591    4.5635    1.5043 H   0  0  0  0  0  0  0  0  0  0  0  0
   -2.0786    2.2711    1.5164 H   0  0  0  0  0  0  0  0  0  0  0  0
   -3.8385   -3.9048   -1.1483 H   0  0  0  0  0  0  0  0  0  0  0  0
   -2.5791   -4.6425   -2.1903 H   0  0  0  0  0  0  0  0  0  0  0  0
   -2.5186   -4.8354   -0.4105 H   0  0  0  0  0  0  0  0  0  0  0  0
  1  2  1  0  0  0  0
  2  3  1  0  0  0  0
  3  4  2  0  0  0  0
  3  5  1  0  0  0  0
  5  6  1  0  0  0  0
  6  7  1  0  0  0  0
  7  8  2  0  0  0  0
  8  9  1  0  0  0  0
  9 10  2  0  0  0  0
 10 11  1  0  0  0  0
 11 12  2  0  0  0  0
 12 13  1  0  0  0  0
 13 14  2  0  0  0  0
 14 15  1  0  0  0  0
 15 16  1  0  0  0  0
 16 17  2  0  0  0  0
  6 18  2  0  0  0  0
 18 19  1  0  0  0  0
 19 20  1  0  0  0  0
 20 21  2  0  0  0  0
 21 22  1  0  0  0  0
 22 23  2  0  0  0  0
 23 24  1  0  0  0  0
 24 25  1  0  0  0  0
 24 26  2  0  0  0  0
 19 27  1  0  0  0  0
 27 28  1  0  0  0  0
 28 29  2  0  0  0  0
 28 30  1  0  0  0  0
 30 31  1  0  0  0  0
 27  5  2  0  0  0  0
 16  7  1  0  0  0  0
 26 20  1  0  0  0  0
 14  9  1  0  0  0  0
  1 32  1  0  0  0  0
  1 33  1  0  0  0  0
  1 34  1  0  0  0  0
  8 35  1  0  0  0  0
 10 36  1  0  0  0  0
 11 37  1  0  0  0  0
 12 38  1  0  0  0  0
 13 39  1  0  0  0  0
 21 40  1  0  0  0  0
 22 41  1  0  0  0  0
 23 42  1  0  0  0  0
 25 43  1  0  0  0  0
 25 44  1  0  0  0  0
 25 45  1  0  0  0  0
 26 46  1  0  0  0  0
 31 47  1  0  0  0  0
 31 48  1  0  0  0  0
 31 49  1  0  0  0  0
M  END
