
  xtb     03212211333D
 energy: -95.704847309052 gnorm: 0.000082540596 xtb: 6.4.1 (afa7bdf)
 58 64  0     0  0            999 V2000
    1.2756    1.1364   -2.1931 F   0  0  0  0  0  0  0  0  0  0  0  0
    0.6558    0.5989   -1.1188 C   0  0  0  0  0  0  0  0  0  0  0  0
   -0.7233    0.5750   -1.1246 C   0  0  0  0  0  0  0  0  0  0  0  0
   -1.4145    0.0179   -0.0519 C   0  0  0  0  0  0  0  0  0  0  0  0
   -2.8816   -0.0116   -0.0401 C   0  0  0  0  0  0  0  0  0  0  0  0
   -3.5928    0.2171    1.1390 C   0  0  0  0  0  0  0  0  0  0  0  0
   -4.9695    0.1870    1.1488 C   0  0  0  0  0  0  0  0  0  0  0  0
   -5.6852   -0.0785   -0.0213 C   0  0  0  0  0  0  0  0  0  0  0  0
   -7.1319   -0.1049    0.0427 C   0  0  0  0  0  0  0  0  0  0  0  0
   -7.8152    0.0342    1.1503 N   0  0  0  0  0  0  0  0  0  0  0  0
   -9.1319   -0.0495    0.8004 C   0  0  0  0  0  0  0  0  0  0  0  0
  -10.2816    0.0289    1.5811 C   0  0  0  0  0  0  0  0  0  0  0  0
  -11.4970   -0.0915    0.9430 C   0  0  0  0  0  0  0  0  0  0  0  0
  -11.5880   -0.2856   -0.4380 C   0  0  0  0  0  0  0  0  0  0  0  0
  -10.4628   -0.3674   -1.2331 C   0  0  0  0  0  0  0  0  0  0  0  0
   -9.2373   -0.2480   -0.5989 C   0  0  0  0  0  0  0  0  0  0  0  0
   -7.9463   -0.2804   -1.0514 N   0  0  0  0  0  0  0  0  0  0  0  0
   -4.9769   -0.3108   -1.2007 C   0  0  0  0  0  0  0  0  0  0  0  0
   -3.5977   -0.2744   -1.2069 C   0  0  0  0  0  0  0  0  0  0  0  0
   -0.6760   -0.5146    1.0042 C   0  0  0  0  0  0  0  0  0  0  0  0
    0.7031   -0.4935    0.9859 C   0  0  0  0  0  0  0  0  0  0  0  0
    1.4126    0.0693   -0.0749 C   0  0  0  0  0  0  0  0  0  0  0  0
    2.8812    0.0883   -0.0774 C   0  0  0  0  0  0  0  0  0  0  0  0
    3.5926   -1.0399    0.3276 C   0  0  0  0  0  0  0  0  0  0  0  0
    4.9719   -1.0404    0.3400 C   0  0  0  0  0  0  0  0  0  0  0  0
    5.6822    0.0963   -0.0480 C   0  0  0  0  0  0  0  0  0  0  0  0
    7.1296    0.1522   -0.0501 C   0  0  0  0  0  0  0  0  0  0  0  0
    7.8184    1.2139   -0.3831 N   0  0  0  0  0  0  0  0  0  0  0  0
    9.1337    0.8719   -0.2575 C   0  0  0  0  0  0  0  0  0  0  0  0
   10.2873    1.6173   -0.4834 C   0  0  0  0  0  0  0  0  0  0  0  0
   11.5001    0.9990   -0.2693 C   0  0  0  0  0  0  0  0  0  0  0  0
   11.5849   -0.3284    0.1593 C   0  0  0  0  0  0  0  0  0  0  0  0
   10.4556   -1.0880    0.3896 C   0  0  0  0  0  0  0  0  0  0  0  0
    9.2329   -0.4735    0.1764 C   0  0  0  0  0  0  0  0  0  0  0  0
    7.9395   -0.9031    0.2999 N   0  0  0  0  0  0  0  0  0  0  0  0
    4.9690    1.2279   -0.4504 C   0  0  0  0  0  0  0  0  0  0  0  0
    3.5916    1.2236   -0.4675 C   0  0  0  0  0  0  0  0  0  0  0  0
   -1.2485    1.0114   -1.9598 H   0  0  0  0  0  0  0  0  0  0  0  0
   -3.0559    0.4433    2.0482 H   0  0  0  0  0  0  0  0  0  0  0  0
   -5.5271    0.3678    2.0537 H   0  0  0  0  0  0  0  0  0  0  0  0
  -10.2098    0.1787    2.6462 H   0  0  0  0  0  0  0  0  0  0  0  0
  -12.4083   -0.0353    1.5199 H   0  0  0  0  0  0  0  0  0  0  0  0
  -12.5638   -0.3737   -0.8922 H   0  0  0  0  0  0  0  0  0  0  0  0
  -10.5344   -0.5176   -2.3004 H   0  0  0  0  0  0  0  0  0  0  0  0
   -7.6568   -0.3966   -2.0070 H   0  0  0  0  0  0  0  0  0  0  0  0
   -5.4954   -0.5305   -2.1230 H   0  0  0  0  0  0  0  0  0  0  0  0
   -3.0650   -0.4768   -2.1244 H   0  0  0  0  0  0  0  0  0  0  0  0
   -1.1907   -0.9683    1.8375 H   0  0  0  0  0  0  0  0  0  0  0  0
    1.2547   -0.9038    1.8186 H   0  0  0  0  0  0  0  0  0  0  0  0
    3.0556   -1.9326    0.6144 H   0  0  0  0  0  0  0  0  0  0  0  0
    5.4885   -1.9362    0.6543 H   0  0  0  0  0  0  0  0  0  0  0  0
   10.2203    2.6411   -0.8142 H   0  0  0  0  0  0  0  0  0  0  0  0
   12.4143    1.5497   -0.4354 H   0  0  0  0  0  0  0  0  0  0  0  0
   12.5589   -0.7688    0.3136 H   0  0  0  0  0  0  0  0  0  0  0  0
   10.5225   -2.1140    0.7208 H   0  0  0  0  0  0  0  0  0  0  0  0
    7.6455   -1.8208    0.5858 H   0  0  0  0  0  0  0  0  0  0  0  0
    5.5280    2.1011   -0.7457 H   0  0  0  0  0  0  0  0  0  0  0  0
    3.0588    2.1110   -0.7727 H   0  0  0  0  0  0  0  0  0  0  0  0
  1  2  1  0  0  0  0
  2  3  2  0  0  0  0
  3  4  1  0  0  0  0
  4  5  1  0  0  0  0
  5  6  2  0  0  0  0
  6  7  1  0  0  0  0
  7  8  2  0  0  0  0
  8  9  1  0  0  0  0
  9 10  2  0  0  0  0
 10 11  1  0  0  0  0
 11 12  2  0  0  0  0
 12 13  1  0  0  0  0
 13 14  2  0  0  0  0
 14 15  1  0  0  0  0
 15 16  2  0  0  0  0
 16 17  1  0  0  0  0
  8 18  1  0  0  0  0
 18 19  2  0  0  0  0
  4 20  2  0  0  0  0
 20 21  1  0  0  0  0
 21 22  2  0  0  0  0
 22 23  1  0  0  0  0
 23 24  2  0  0  0  0
 24 25  1  0  0  0  0
 25 26  2  0  0  0  0
 26 27  1  0  0  0  0
 27 28  2  0  0  0  0
 28 29  1  0  0  0  0
 29 30  2  0  0  0  0
 30 31  1  0  0  0  0
 31 32  2  0  0  0  0
 32 33  1  0  0  0  0
 33 34  2  0  0  0  0
 34 35  1  0  0  0  0
 26 36  1  0  0  0  0
 36 37  2  0  0  0  0
 22  2  1  0  0  0  0
 37 23  1  0  0  0  0
 19  5  1  0  0  0  0
 35 27  1  0  0  0  0
 17  9  1  0  0  0  0
 34 29  1  0  0  0  0
 16 11  1  0  0  0  0
  3 38  1  0  0  0  0
  6 39  1  0  0  0  0
  7 40  1  0  0  0  0
 12 41  1  0  0  0  0
 13 42  1  0  0  0  0
 14 43  1  0  0  0  0
 15 44  1  0  0  0  0
 17 45  1  0  0  0  0
 18 46  1  0  0  0  0
 19 47  1  0  0  0  0
 20 48  1  0  0  0  0
 21 49  1  0  0  0  0
 24 50  1  0  0  0  0
 25 51  1  0  0  0  0
 30 52  1  0  0  0  0
 31 53  1  0  0  0  0
 32 54  1  0  0  0  0
 33 55  1  0  0  0  0
 35 56  1  0  0  0  0
 36 57  1  0  0  0  0
 37 58  1  0  0  0  0
M  END
