
  xtb     03212210383D
 energy: -130.395213836129 gnorm: 0.000289718130 xtb: 6.4.1 (afa7bdf)
 76 79  0     0  0            999 V2000
    0.7169   -5.2075   -0.6068 C   0  0  0  0  0  0  0  0  0  0  0  0
    0.0674   -3.8614   -0.3265 C   0  0  0  0  0  0  0  0  0  0  0  0
    1.0473   -2.8533   -0.0536 O   0  0  0  0  0  0  0  0  0  0  0  0
    1.6674   -2.3160   -1.0832 C   0  0  0  0  0  0  0  0  0  0  0  0
    1.5765   -2.6600   -2.2293 O   0  0  0  0  0  0  0  0  0  0  0  0
    2.6687   -1.2455   -0.6151 C   0  0  0  0  0  0  0  0  0  0  0  0
    3.4454   -1.8758    0.5505 C   0  0  0  0  0  0  0  0  0  0  0  0
    3.5687   -1.4085    1.6467 O   0  0  0  0  0  0  0  0  0  0  0  0
    3.9634   -3.0360    0.1538 O   0  0  0  0  0  0  0  0  0  0  0  0
    4.6909   -3.7917    1.1267 C   0  0  0  0  0  0  0  0  0  0  0  0
    6.1240   -3.2974    1.2578 C   0  0  0  0  0  0  0  0  0  0  0  0
    2.1810    0.1106   -0.2223 C   0  0  0  0  0  0  0  0  0  0  0  0
    0.9320    0.5849   -0.1492 N   0  0  0  0  0  4  0  0  0  0  0  0
    0.9996    1.9009    0.2777 C   0  0  0  0  0  0  0  0  0  0  0  0
   -0.1349    2.6997    0.4324 C   0  0  0  0  0  0  0  0  0  0  0  0
   -0.0112    4.0839    0.9000 C   0  0  0  0  0  0  0  0  0  0  0  0
   -0.7613    4.5230    1.9889 C   0  0  0  0  0  0  0  0  0  0  0  0
   -0.6463    5.8236    2.4398 C   0  0  0  0  0  0  0  0  0  0  0  0
    0.2018    6.7266    1.8097 C   0  0  0  0  0  0  0  0  0  0  0  0
    0.3073    8.1439    2.2788 C   0  0  0  0  0  0  0  0  0  0  0  0
    0.9369    6.2885    0.7131 C   0  0  0  0  0  0  0  0  0  0  0  0
    0.8403    4.9861    0.2653 C   0  0  0  0  0  0  0  0  0  0  0  0
   -1.3954    2.1983    0.1045 C   0  0  0  0  0  0  0  0  0  0  0  0
   -2.6461    2.8496    0.0238 C   0  0  0  0  0  0  0  0  0  0  0  0
   -3.5396    1.9306   -0.4770 C   0  0  0  0  0  0  0  0  0  0  0  0
   -2.8331    0.7380   -0.6960 C   0  0  0  0  0  0  0  0  0  0  0  0
   -3.3575   -0.5262   -1.2879 C   0  0  0  0  0  0  0  0  0  0  0  0
   -3.1570   -1.7040   -0.3242 C   0  0  0  0  0  0  0  0  0  0  0  0
   -2.8695   -2.8287   -0.6125 O   0  0  0  0  0  0  0  0  0  0  0  0
   -3.4332   -1.2826    0.9066 O   0  0  0  0  0  0  0  0  0  0  0  0
   -3.2614   -2.2203    1.9743 C   0  0  0  0  0  0  0  0  0  0  0  0
   -4.0771   -1.7474    3.1631 C   0  0  0  0  0  0  0  0  0  0  0  0
   -2.7635   -0.7015   -2.7015 C   0  0  0  0  0  0  0  0  0  0  0  0
   -2.4838    0.2506   -3.3816 O   0  0  0  0  0  0  0  0  0  0  0  0
   -2.7100   -1.9579   -3.0769 O   0  0  0  0  0  0  0  0  0  0  0  0
   -2.2034   -2.2341   -4.3893 C   0  0  0  0  0  0  0  0  0  0  0  0
   -0.7122   -1.9685   -4.5144 C   0  0  0  0  0  0  0  0  0  0  0  0
   -1.5534    0.9071   -0.3456 N   0  0  0  0  0  0  0  0  0  0  0  0
   -0.4262   -0.1534   -0.2959 B   0  0  0  0  0  4  0  0  0  0  0  0
   -0.4519   -0.9125   -1.4379 F   0  0  0  0  0  0  0  0  0  0  0  0
   -0.6261   -0.9478    0.8205 F   0  0  0  0  0  0  0  0  0  0  0  0
    2.3563    2.2306    0.4885 C   0  0  0  0  0  0  0  0  0  0  0  0
    3.0884    1.1179    0.1577 C   0  0  0  0  0  0  0  0  0  0  0  0
   -0.0574   -5.9531   -0.7612 H   0  0  0  0  0  0  0  0  0  0  0  0
    1.3324   -5.1461   -1.5007 H   0  0  0  0  0  0  0  0  0  0  0  0
    1.3406   -5.5094    0.2323 H   0  0  0  0  0  0  0  0  0  0  0  0
   -0.5476   -3.5391   -1.1702 H   0  0  0  0  0  0  0  0  0  0  0  0
   -0.5498   -3.8943    0.5717 H   0  0  0  0  0  0  0  0  0  0  0  0
    3.3747   -1.1188   -1.4464 H   0  0  0  0  0  0  0  0  0  0  0  0
    4.1736   -3.7190    2.0885 H   0  0  0  0  0  0  0  0  0  0  0  0
    4.6602   -4.8200    0.7611 H   0  0  0  0  0  0  0  0  0  0  0  0
    6.1325   -2.2788    1.6373 H   0  0  0  0  0  0  0  0  0  0  0  0
    6.6197   -3.3207    0.2902 H   0  0  0  0  0  0  0  0  0  0  0  0
    6.6666   -3.9348    1.9499 H   0  0  0  0  0  0  0  0  0  0  0  0
   -1.4125    3.8277    2.4968 H   0  0  0  0  0  0  0  0  0  0  0  0
   -1.2244    6.1434    3.2947 H   0  0  0  0  0  0  0  0  0  0  0  0
   -0.3103    8.7888    1.6530 H   0  0  0  0  0  0  0  0  0  0  0  0
    1.3336    8.4982    2.2104 H   0  0  0  0  0  0  0  0  0  0  0  0
   -0.0336    8.2414    3.3064 H   0  0  0  0  0  0  0  0  0  0  0  0
    1.5935    6.9797    0.2045 H   0  0  0  0  0  0  0  0  0  0  0  0
    1.4005    4.6671   -0.6006 H   0  0  0  0  0  0  0  0  0  0  0  0
   -2.8338    3.8729    0.2827 H   0  0  0  0  0  0  0  0  0  0  0  0
   -4.5811    2.0793   -0.6829 H   0  0  0  0  0  0  0  0  0  0  0  0
   -4.4414   -0.4226   -1.4258 H   0  0  0  0  0  0  0  0  0  0  0  0
   -2.1949   -2.2578    2.2156 H   0  0  0  0  0  0  0  0  0  0  0  0
   -3.5837   -3.2092    1.6304 H   0  0  0  0  0  0  0  0  0  0  0  0
   -3.7543   -0.7537    3.4607 H   0  0  0  0  0  0  0  0  0  0  0  0
   -3.9373   -2.4310    3.9955 H   0  0  0  0  0  0  0  0  0  0  0  0
   -5.1332   -1.7093    2.9083 H   0  0  0  0  0  0  0  0  0  0  0  0
   -2.4330   -3.2903   -4.5433 H   0  0  0  0  0  0  0  0  0  0  0  0
   -2.7589   -1.6222   -5.1100 H   0  0  0  0  0  0  0  0  0  0  0  0
   -0.3664   -2.3136   -5.4850 H   0  0  0  0  0  0  0  0  0  0  0  0
   -0.1610   -2.4832   -3.7330 H   0  0  0  0  0  0  0  0  0  0  0  0
   -0.5147   -0.9045   -4.4229 H   0  0  0  0  0  0  0  0  0  0  0  0
    2.7218    3.1722    0.8463 H   0  0  0  0  0  0  0  0  0  0  0  0
    4.1535    1.0041    0.1920 H   0  0  0  0  0  0  0  0  0  0  0  0
  1  2  1  0  0  0  0
  2  3  1  0  0  0  0
  3  4  1  0  0  0  0
  4  5  2  0  0  0  0
  4  6  1  0  0  0  0
  6  7  1  0  0  0  0
  7  8  2  0  0  0  0
  7  9  1  0  0  0  0
  9 10  1  0  0  0  0
 10 11  1  0  0  0  0
  6 12  1  0  0  0  0
 12 13  2  0  0  0  0
 13 14  1  0  0  0  0
 14 15  2  0  0  0  0
 15 16  1  0  0  0  0
 16 17  2  0  0  0  0
 17 18  1  0  0  0  0
 18 19  2  0  0  0  0
 19 20  1  0  0  0  0
 19 21  1  0  0  0  0
 21 22  2  0  0  0  0
 15 23  1  0  0  0  0
 23 24  2  0  0  0  0
 24 25  1  0  0  0  0
 25 26  2  0  0  0  0
 26 27  1  0  0  0  0
 27 28  1  0  0  0  0
 28 29  2  0  0  0  0
 28 30  1  0  0  0  0
 30 31  1  0  0  0  0
 31 32  1  0  0  0  0
 27 33  1  0  0  0  0
 33 34  2  0  0  0  0
 33 35  1  0  0  0  0
 35 36  1  0  0  0  0
 36 37  1  0  0  0  0
 26 38  1  0  0  0  0
 38 39  1  0  0  0  0
 39 40  1  0  0  0  0
 39 41  1  0  0  0  0
 14 42  1  0  0  0  0
 42 43  2  0  0  0  0
 43 12  1  0  0  0  0
 39 13  1  0  0  0  0
 22 16  1  0  0  0  0
 38 23  1  0  0  0  0
  1 44  1  0  0  0  0
  1 45  1  0  0  0  0
  1 46  1  0  0  0  0
  2 47  1  0  0  0  0
  2 48  1  0  0  0  0
  6 49  1  0  0  0  0
 10 50  1  0  0  0  0
 10 51  1  0  0  0  0
 11 52  1  0  0  0  0
 11 53  1  0  0  0  0
 11 54  1  0  0  0  0
 17 55  1  0  0  0  0
 18 56  1  0  0  0  0
 20 57  1  0  0  0  0
 20 58  1  0  0  0  0
 20 59  1  0  0  0  0
 21 60  1  0  0  0  0
 22 61  1  0  0  0  0
 24 62  1  0  0  0  0
 25 63  1  0  0  0  0
 27 64  1  0  0  0  0
 31 65  1  0  0  0  0
 31 66  1  0  0  0  0
 32 67  1  0  0  0  0
 32 68  1  0  0  0  0
 32 69  1  0  0  0  0
 36 70  1  0  0  0  0
 36 71  1  0  0  0  0
 37 72  1  0  0  0  0
 37 73  1  0  0  0  0
 37 74  1  0  0  0  0
 42 75  1  0  0  0  0
 43 76  1  0  0  0  0
M  CHG  1  13   1
M  CHG  1  39  -1
M  END
