
  xtb     03212212173D
 energy: -50.215938684914 gnorm: 0.000179518571 xtb: 6.4.1 (afa7bdf)
 34 36  0     0  0            999 V2000
   -0.0296    0.6903    1.8013 C   0  0  0  0  0  0  0  0  0  0  0  0
   -0.3173    0.1855    0.4192 C   0  0  0  0  0  0  0  0  0  0  0  0
    0.6114   -0.2434   -0.4569 C   0  0  0  0  0  0  0  0  0  0  0  0
    2.0545   -0.2522   -0.2963 C   0  0  0  0  0  0  0  0  0  0  0  0
    2.7884   -1.3005   -0.8576 C   0  0  0  0  0  0  0  0  0  0  0  0
    4.1607   -1.3560   -0.7291 C   0  0  0  0  0  0  0  0  0  0  0  0
    4.8558   -0.3541   -0.0610 C   0  0  0  0  0  0  0  0  0  0  0  0
    6.3439   -0.4168    0.0931 C   0  0  0  0  0  0  0  0  0  0  0  0
    4.1319    0.7085    0.4675 C   0  0  0  0  0  0  0  0  0  0  0  0
    2.7565    0.7619    0.3574 C   0  0  0  0  0  0  0  0  0  0  0  0
   -1.7161    0.1380    0.0725 C   0  0  0  0  0  0  0  0  0  0  0  0
   -2.6672    0.4812    0.8637 N   0  0  0  0  0  0  0  0  0  0  0  0
   -3.8974    0.3580    0.3030 C   0  0  0  0  0  0  0  0  0  0  0  0
   -5.1110    0.6551    0.9191 C   0  0  0  0  0  0  0  0  0  0  0  0
   -6.2787    0.4760    0.2098 C   0  0  0  0  0  0  0  0  0  0  0  0
   -6.2598    0.0058   -1.1024 C   0  0  0  0  0  0  0  0  0  0  0  0
   -5.0694   -0.2960   -1.7346 C   0  0  0  0  0  0  0  0  0  0  0  0
   -3.8922   -0.1180   -1.0291 C   0  0  0  0  0  0  0  0  0  0  0  0
   -2.2592   -0.4032   -1.5408 S   0  0  0  0  0  0  0  0  0  0  0  0
   -0.8306    0.3797    2.4676 H   0  0  0  0  0  0  0  0  0  0  0  0
   -0.0023    1.7792    1.8110 H   0  0  0  0  0  0  0  0  0  0  0  0
    0.9206    0.3062    2.1628 H   0  0  0  0  0  0  0  0  0  0  0  0
    0.2622   -0.6735   -1.3895 H   0  0  0  0  0  0  0  0  0  0  0  0
    2.2660   -2.0863   -1.3845 H   0  0  0  0  0  0  0  0  0  0  0  0
    4.7048   -2.1845   -1.1603 H   0  0  0  0  0  0  0  0  0  0  0  0
    6.5996   -0.8199    1.0739 H   0  0  0  0  0  0  0  0  0  0  0  0
    6.7873   -1.0603   -0.6629 H   0  0  0  0  0  0  0  0  0  0  0  0
    6.7834    0.5755    0.0158 H   0  0  0  0  0  0  0  0  0  0  0  0
    4.6568    1.5092    0.9694 H   0  0  0  0  0  0  0  0  0  0  0  0
    2.2269    1.6187    0.7421 H   0  0  0  0  0  0  0  0  0  0  0  0
   -5.1123    1.0180    1.9345 H   0  0  0  0  0  0  0  0  0  0  0  0
   -7.2261    0.7030    0.6755 H   0  0  0  0  0  0  0  0  0  0  0  0
   -7.1902   -0.1248   -1.6343 H   0  0  0  0  0  0  0  0  0  0  0  0
   -5.0512   -0.6602   -2.7501 H   0  0  0  0  0  0  0  0  0  0  0  0
  1  2  1  0  0  0  0
  2  3  2  0  0  0  0
  3  4  1  0  0  0  0
  4  5  2  0  0  0  0
  5  6  1  0  0  0  0
  6  7  2  0  0  0  0
  7  8  1  0  0  0  0
  7  9  1  0  0  0  0
  9 10  2  0  0  0  0
  2 11  1  0  0  0  0
 11 12  2  0  0  0  0
 12 13  1  0  0  0  0
 13 14  2  0  0  0  0
 14 15  1  0  0  0  0
 15 16  2  0  0  0  0
 16 17  1  0  0  0  0
 17 18  2  0  0  0  0
 18 19  1  0  0  0  0
 10  4  1  0  0  0  0
 19 11  1  0  0  0  0
 18 13  1  0  0  0  0
  1 20  1  0  0  0  0
  1 21  1  0  0  0  0
  1 22  1  0  0  0  0
  3 23  1  0  0  0  0
  5 24  1  0  0  0  0
  6 25  1  0  0  0  0
  8 26  1  0  0  0  0
  8 27  1  0  0  0  0
  8 28  1  0  0  0  0
  9 29  1  0  0  0  0
 10 30  1  0  0  0  0
 14 31  1  0  0  0  0
 15 32  1  0  0  0  0
 16 33  1  0  0  0  0
 17 34  1  0  0  0  0
M  END
