
  xtb     03212210553D
 energy: -39.768037087959 gnorm: 0.000221489874 xtb: 6.4.1 (afa7bdf)
 27 28  0     0  0            999 V2000
   -0.6976    2.4993    0.7628 C   0  0  0  0  0  0  0  0  0  0  0  0
   -1.4534    1.2169    0.7156 C   0  0  0  0  0  0  0  0  0  0  0  0
   -2.7470    0.9605    1.0734 C   0  0  0  0  0  0  0  0  0  0  0  0
   -3.0079   -0.3988    0.7968 C   0  0  0  0  0  0  0  0  0  0  0  0
   -1.8755   -0.9375    0.2540 C   0  0  0  0  0  0  0  0  0  0  0  0
   -1.6077   -2.3393   -0.1723 C   0  0  0  0  0  0  0  0  0  0  0  0
   -0.9197    0.0531    0.2078 N   0  0  0  0  0  0  0  0  0  0  0  0
    0.3851   -0.0986   -0.2782 C   0  0  0  0  0  0  0  0  0  0  0  0
    0.6051   -0.5894   -1.5645 C   0  0  0  0  0  0  0  0  0  0  0  0
    1.8937   -0.7430   -2.0452 C   0  0  0  0  0  0  0  0  0  0  0  0
    2.9802   -0.4033   -1.2609 C   0  0  0  0  0  0  0  0  0  0  0  0
    2.7646    0.0924    0.0252 C   0  0  0  0  0  0  0  0  0  0  0  0
    3.8667    0.4437    0.8403 C   0  0  0  0  0  0  0  0  0  0  0  0
    4.7591    0.7310    1.4994 N   0  0  0  0  0  0  0  0  0  0  0  0
    1.4712    0.2404    0.5198 C   0  0  0  0  0  0  0  0  0  0  0  0
   -1.3999    3.3294    0.7517 H   0  0  0  0  0  0  0  0  0  0  0  0
   -0.0991    2.5823    1.6716 H   0  0  0  0  0  0  0  0  0  0  0  0
   -0.0303    2.5932   -0.0934 H   0  0  0  0  0  0  0  0  0  0  0  0
   -3.4363    1.6680    1.4902 H   0  0  0  0  0  0  0  0  0  0  0  0
   -3.9276   -0.9192    0.9782 H   0  0  0  0  0  0  0  0  0  0  0  0
   -0.5749   -2.6199    0.0302 H   0  0  0  0  0  0  0  0  0  0  0  0
   -2.2661   -3.0117    0.3723 H   0  0  0  0  0  0  0  0  0  0  0  0
   -1.7968   -2.4796   -1.2378 H   0  0  0  0  0  0  0  0  0  0  0  0
   -0.2406   -0.8359   -2.1873 H   0  0  0  0  0  0  0  0  0  0  0  0
    2.0507   -1.1233   -3.0433 H   0  0  0  0  0  0  0  0  0  0  0  0
    3.9882   -0.5156   -1.6301 H   0  0  0  0  0  0  0  0  0  0  0  0
    1.3159    0.6049    1.5236 H   0  0  0  0  0  0  0  0  0  0  0  0
  1  2  1  0  0  0  0
  2  3  2  0  0  0  0
  3  4  1  0  0  0  0
  4  5  2  0  0  0  0
  5  6  1  0  0  0  0
  5  7  1  0  0  0  0
  7  8  1  0  0  0  0
  8  9  2  0  0  0  0
  9 10  1  0  0  0  0
 10 11  2  0  0  0  0
 11 12  1  0  0  0  0
 12 13  1  0  0  0  0
 13 14  3  0  0  0  0
 12 15  2  0  0  0  0
  7  2  1  0  0  0  0
 15  8  1  0  0  0  0
  1 16  1  0  0  0  0
  1 17  1  0  0  0  0
  1 18  1  0  0  0  0
  3 19  1  0  0  0  0
  4 20  1  0  0  0  0
  6 21  1  0  0  0  0
  6 22  1  0  0  0  0
  6 23  1  0  0  0  0
  9 24  1  0  0  0  0
 10 25  1  0  0  0  0
 11 26  1  0  0  0  0
 15 27  1  0  0  0  0
M  END
