
  xtb     03212211323D
 energy: -81.529660348550 gnorm: 0.000136059820 xtb: 6.4.1 (afa7bdf)
 43 47  0     0  0            999 V2000
    5.1694    3.3916    0.5167 C   0  0  0  0  0  0  0  0  0  0  0  0
    3.8528    2.8945    0.4930 O   0  0  0  0  0  0  0  0  0  0  0  0
    3.6599    1.5715    0.2236 C   0  0  0  0  0  0  0  0  0  0  0  0
    4.6869    0.6499   -0.0217 C   0  0  0  0  0  0  0  0  0  0  0  0
    4.3977   -0.6686   -0.2883 C   0  0  0  0  0  0  0  0  0  0  0  0
    3.0762   -1.1298   -0.3193 C   0  0  0  0  0  0  0  0  0  0  0  0
    2.0409   -0.2046   -0.0701 C   0  0  0  0  0  0  0  0  0  0  0  0
    2.3485    1.1353    0.1949 C   0  0  0  0  0  0  0  0  0  0  0  0
    0.6716   -0.6402   -0.1043 C   0  0  0  0  0  0  0  0  0  0  0  0
   -0.2652    0.3018    0.0623 N   0  0  0  0  0  0  0  0  0  0  0  0
   -1.5340   -0.0098    0.0467 C   0  0  0  0  0  0  0  0  0  0  0  0
   -2.4772    1.1076    0.1374 C   0  0  0  0  0  0  0  0  0  0  0  0
   -3.5969    1.1865   -0.6896 C   0  0  0  0  0  0  0  0  0  0  0  0
   -4.4548    2.2664   -0.5915 C   0  0  0  0  0  0  0  0  0  0  0  0
   -4.2099    3.2715    0.3302 C   0  0  0  0  0  0  0  0  0  0  0  0
   -3.0872    3.2084    1.1406 C   0  0  0  0  0  0  0  0  0  0  0  0
   -2.2181    2.1395    1.0385 C   0  0  0  0  0  0  0  0  0  0  0  0
   -1.9513   -1.3741   -0.0560 C   0  0  0  0  0  0  0  0  0  0  0  0
   -3.2827   -1.7946    0.0894 C   0  0  0  0  0  0  0  0  0  0  0  0
   -3.5958   -3.1210   -0.0682 C   0  0  0  0  0  0  0  0  0  0  0  0
   -5.2287   -3.6461    0.1073 Cl  0  0  0  0  0  0  0  0  0  0  0  0
   -2.6014   -4.0619   -0.3682 C   0  0  0  0  0  0  0  0  0  0  0  0
   -1.2908   -3.6776   -0.4703 C   0  0  0  0  0  0  0  0  0  0  0  0
   -0.9282   -2.3298   -0.2931 C   0  0  0  0  0  0  0  0  0  0  0  0
    0.3756   -1.9262   -0.3312 N   0  0  0  0  0  4  0  0  0  0  0  0
    1.5484   -3.0085   -0.5959 B   0  0  0  0  0  4  0  0  0  0  0  0
    1.2877   -3.5849   -1.8170 F   0  0  0  0  0  0  0  0  0  0  0  0
    1.4471   -3.9456    0.4094 F   0  0  0  0  0  0  0  0  0  0  0  0
    2.8485   -2.3989   -0.5903 O   0  0  0  0  0  0  0  0  0  0  0  0
    5.6647    3.2696   -0.4519 H   0  0  0  0  0  0  0  0  0  0  0  0
    5.7690    2.9112    1.2966 H   0  0  0  0  0  0  0  0  0  0  0  0
    5.0767    4.4534    0.7399 H   0  0  0  0  0  0  0  0  0  0  0  0
    5.7198    0.9603   -0.0074 H   0  0  0  0  0  0  0  0  0  0  0  0
    5.1863   -1.3782   -0.4802 H   0  0  0  0  0  0  0  0  0  0  0  0
    1.5478    1.8328    0.3738 H   0  0  0  0  0  0  0  0  0  0  0  0
   -3.7715    0.4241   -1.4344 H   0  0  0  0  0  0  0  0  0  0  0  0
   -5.3167    2.3250   -1.2392 H   0  0  0  0  0  0  0  0  0  0  0  0
   -4.8878    4.1080    0.4089 H   0  0  0  0  0  0  0  0  0  0  0  0
   -2.8878    3.9973    1.8501 H   0  0  0  0  0  0  0  0  0  0  0  0
   -1.3388    2.0785    1.6605 H   0  0  0  0  0  0  0  0  0  0  0  0
   -4.0464   -1.0765    0.3412 H   0  0  0  0  0  0  0  0  0  0  0  0
   -2.8743   -5.0970   -0.4998 H   0  0  0  0  0  0  0  0  0  0  0  0
   -0.5303   -4.4103   -0.6731 H   0  0  0  0  0  0  0  0  0  0  0  0
  1  2  1  0  0  0  0
  2  3  1  0  0  0  0
  3  4  2  0  0  0  0
  4  5  1  0  0  0  0
  5  6  2  0  0  0  0
  6  7  1  0  0  0  0
  7  8  2  0  0  0  0
  7  9  1  0  0  0  0
  9 10  2  0  0  0  0
 10 11  1  0  0  0  0
 11 12  1  0  0  0  0
 12 13  2  0  0  0  0
 13 14  1  0  0  0  0
 14 15  2  0  0  0  0
 15 16  1  0  0  0  0
 16 17  2  0  0  0  0
 11 18  2  0  0  0  0
 18 19  1  0  0  0  0
 19 20  2  0  0  0  0
 20 21  1  0  0  0  0
 20 22  1  0  0  0  0
 22 23  2  0  0  0  0
 23 24  1  0  0  0  0
 24 25  2  0  0  0  0
 25 26  1  0  0  0  0
 26 27  1  0  0  0  0
 26 28  1  0  0  0  0
 26 29  1  0  0  0  0
  8  3  1  0  0  0  0
 25  9  1  0  0  0  0
 29  6  1  0  0  0  0
 17 12  1  0  0  0  0
 24 18  1  0  0  0  0
  1 30  1  0  0  0  0
  1 31  1  0  0  0  0
  1 32  1  0  0  0  0
  4 33  1  0  0  0  0
  5 34  1  0  0  0  0
  8 35  1  0  0  0  0
 13 36  1  0  0  0  0
 14 37  1  0  0  0  0
 15 38  1  0  0  0  0
 16 39  1  0  0  0  0
 17 40  1  0  0  0  0
 19 41  1  0  0  0  0
 22 42  1  0  0  0  0
 23 43  1  0  0  0  0
M  CHG  1  25   1
M  CHG  1  26  -1
M  END
