
  xtb     03212212043D
 energy: -105.837600222873 gnorm: 0.000149501892 xtb: 6.4.1 (afa7bdf)
 70 78  0     0  0            999 V2000
    8.2835   -2.2700    1.0808 C   0  0  0  0  0  0  0  0  0  0  0  0
    7.8613   -1.2417    1.9066 C   0  0  0  0  0  0  0  0  0  0  0  0
    6.8139   -0.4251    1.5193 C   0  0  0  0  0  0  0  0  0  0  0  0
    6.1781   -0.6325    0.3011 C   0  0  0  0  0  0  0  0  0  0  0  0
    5.0600    0.2430   -0.1177 C   0  0  0  0  0  0  0  0  0  0  0  0
    3.7507   -0.1253    0.0757 C   0  0  0  0  0  0  0  0  0  0  0  0
    2.7234    0.7631   -0.3477 C   0  0  0  0  0  0  0  0  0  0  0  0
    2.9642    1.9264   -0.9025 N   0  0  0  0  0  0  0  0  0  0  0  0
    4.2374    2.3085   -1.1005 C   0  0  0  0  0  0  0  0  0  0  0  0
    4.4786    3.5614   -1.7021 C   0  0  0  0  0  0  0  0  0  0  0  0
    5.7586    3.9823   -1.9306 C   0  0  0  0  0  0  0  0  0  0  0  0
    6.8483    3.1741   -1.5719 C   0  0  0  0  0  0  0  0  0  0  0  0
    6.6467    1.9549   -0.9849 C   0  0  0  0  0  0  0  0  0  0  0  0
    5.3411    1.4933   -0.7311 C   0  0  0  0  0  0  0  0  0  0  0  0
    1.3272    0.3724   -0.1570 C   0  0  0  0  0  0  0  0  0  0  0  0
    0.3155    1.3281   -0.2057 C   0  0  0  0  0  0  0  0  0  0  0  0
   -1.0083    0.9722   -0.0385 C   0  0  0  0  0  0  0  0  0  0  0  0
   -1.3298   -0.3721    0.1821 C   0  0  0  0  0  0  0  0  0  0  0  0
   -0.3183   -1.3277    0.2318 C   0  0  0  0  0  0  0  0  0  0  0  0
    1.0059   -0.9719    0.0653 C   0  0  0  0  0  0  0  0  0  0  0  0
    2.1095   -1.9892    0.0859 C   0  0  0  0  0  0  0  0  0  0  0  0
    3.3509   -1.4024    0.7544 C   0  0  0  0  0  0  0  0  0  0  0  0
   -2.7269   -0.7612    0.3712 C   0  0  0  0  0  0  0  0  0  0  0  0
   -2.9671   -1.9147    0.9460 N   0  0  0  0  0  0  0  0  0  0  0  0
   -4.2400   -2.2980    1.1425 C   0  0  0  0  0  0  0  0  0  0  0  0
   -4.4768   -3.5439    1.7600 C   0  0  0  0  0  0  0  0  0  0  0  0
   -5.7550   -3.9760    1.9758 C   0  0  0  0  0  0  0  0  0  0  0  0
   -6.8467   -3.1879    1.5809 C   0  0  0  0  0  0  0  0  0  0  0  0
   -6.6488   -1.9742    0.9809 C   0  0  0  0  0  0  0  0  0  0  0  0
   -5.3451   -1.4935    0.7531 C   0  0  0  0  0  0  0  0  0  0  0  0
   -5.0647   -0.2480    0.1269 C   0  0  0  0  0  0  0  0  0  0  0  0
   -6.1790    0.6278   -0.2942 C   0  0  0  0  0  0  0  0  0  0  0  0
   -6.4487    0.8297   -1.6432 C   0  0  0  0  0  0  0  0  0  0  0  0
   -7.4953    1.6466   -2.0312 C   0  0  0  0  0  0  0  0  0  0  0  0
   -8.2777    2.2752   -1.0770 C   0  0  0  0  0  0  0  0  0  0  0  0
   -8.0128    2.0807    0.2683 C   0  0  0  0  0  0  0  0  0  0  0  0
   -6.9716    1.2585    0.6593 C   0  0  0  0  0  0  0  0  0  0  0  0
   -3.7538    0.1189   -0.0692 C   0  0  0  0  0  0  0  0  0  0  0  0
   -3.3512    1.4032   -0.7337 C   0  0  0  0  0  0  0  0  0  0  0  0
   -2.1139    1.9867   -0.0543 C   0  0  0  0  0  0  0  0  0  0  0  0
    6.6067   -1.6657   -0.5245 C   0  0  0  0  0  0  0  0  0  0  0  0
    7.6551   -2.4799   -0.1352 C   0  0  0  0  0  0  0  0  0  0  0  0
    9.1020   -2.9062    1.3837 H   0  0  0  0  0  0  0  0  0  0  0  0
    8.3501   -1.0742    2.8552 H   0  0  0  0  0  0  0  0  0  0  0  0
    6.4827    0.3798    2.1600 H   0  0  0  0  0  0  0  0  0  0  0  0
    3.6252    4.1633   -1.9728 H   0  0  0  0  0  0  0  0  0  0  0  0
    5.9418    4.9417   -2.3924 H   0  0  0  0  0  0  0  0  0  0  0  0
    7.8525    3.5228   -1.7640 H   0  0  0  0  0  0  0  0  0  0  0  0
    7.4849    1.3308   -0.7088 H   0  0  0  0  0  0  0  0  0  0  0  0
    0.5943    2.3565   -0.3775 H   0  0  0  0  0  0  0  0  0  0  0  0
   -0.5969   -2.3561    0.4044 H   0  0  0  0  0  0  0  0  0  0  0  0
    1.7845   -2.8895    0.6095 H   0  0  0  0  0  0  0  0  0  0  0  0
    2.3544   -2.2715   -0.9443 H   0  0  0  0  0  0  0  0  0  0  0  0
    4.1745   -2.1185    0.7369 H   0  0  0  0  0  0  0  0  0  0  0  0
    3.1212   -1.1830    1.8033 H   0  0  0  0  0  0  0  0  0  0  0  0
   -3.6206   -4.1335    2.0487 H   0  0  0  0  0  0  0  0  0  0  0  0
   -5.9353   -4.9305    2.4486 H   0  0  0  0  0  0  0  0  0  0  0  0
   -7.8504   -3.5490    1.7518 H   0  0  0  0  0  0  0  0  0  0  0  0
   -7.4915   -1.3734    0.6700 H   0  0  0  0  0  0  0  0  0  0  0  0
   -5.8392    0.3349   -2.3857 H   0  0  0  0  0  0  0  0  0  0  0  0
   -7.7002    1.7941   -3.0815 H   0  0  0  0  0  0  0  0  0  0  0  0
   -9.0929    2.9150   -1.3811 H   0  0  0  0  0  0  0  0  0  0  0  0
   -8.6203    2.5698    1.0159 H   0  0  0  0  0  0  0  0  0  0  0  0
   -6.7612    1.1058    1.7085 H   0  0  0  0  0  0  0  0  0  0  0  0
   -3.1151    1.1980   -1.7839 H   0  0  0  0  0  0  0  0  0  0  0  0
   -4.1750    2.1191   -0.7095 H   0  0  0  0  0  0  0  0  0  0  0  0
   -2.3642    2.2586    0.9773 H   0  0  0  0  0  0  0  0  0  0  0  0
   -1.7898    2.8928   -0.5684 H   0  0  0  0  0  0  0  0  0  0  0  0
    6.1160   -1.8241   -1.4745 H   0  0  0  0  0  0  0  0  0  0  0  0
    7.9831   -3.2795   -0.7833 H   0  0  0  0  0  0  0  0  0  0  0  0
  1  2  2  0  0  0  0
  2  3  1  0  0  0  0
  3  4  2  0  0  0  0
  4  5  1  0  0  0  0
  5  6  2  0  0  0  0
  6  7  1  0  0  0  0
  7  8  2  0  0  0  0
  8  9  1  0  0  0  0
  9 10  2  0  0  0  0
 10 11  1  0  0  0  0
 11 12  2  0  0  0  0
 12 13  1  0  0  0  0
 13 14  2  0  0  0  0
  7 15  1  0  0  0  0
 15 16  2  0  0  0  0
 16 17  1  0  0  0  0
 17 18  2  0  0  0  0
 18 19  1  0  0  0  0
 19 20  2  0  0  0  0
 20 21  1  0  0  0  0
 21 22  1  0  0  0  0
 18 23  1  0  0  0  0
 23 24  2  0  0  0  0
 24 25  1  0  0  0  0
 25 26  2  0  0  0  0
 26 27  1  0  0  0  0
 27 28  2  0  0  0  0
 28 29  1  0  0  0  0
 29 30  2  0  0  0  0
 30 31  1  0  0  0  0
 31 32  1  0  0  0  0
 32 33  2  0  0  0  0
 33 34  1  0  0  0  0
 34 35  2  0  0  0  0
 35 36  1  0  0  0  0
 36 37  2  0  0  0  0
 31 38  2  0  0  0  0
 38 39  1  0  0  0  0
 39 40  1  0  0  0  0
  4 41  1  0  0  0  0
 41 42  2  0  0  0  0
 42  1  1  0  0  0  0
 14  5  1  0  0  0  0
 20 15  1  0  0  0  0
 38 23  1  0  0  0  0
 22  6  1  0  0  0  0
 30 25  1  0  0  0  0
 37 32  1  0  0  0  0
 14  9  1  0  0  0  0
 40 17  1  0  0  0  0
  1 43  1  0  0  0  0
  2 44  1  0  0  0  0
  3 45  1  0  0  0  0
 10 46  1  0  0  0  0
 11 47  1  0  0  0  0
 12 48  1  0  0  0  0
 13 49  1  0  0  0  0
 16 50  1  0  0  0  0
 19 51  1  0  0  0  0
 21 52  1  0  0  0  0
 21 53  1  0  0  0  0
 22 54  1  0  0  0  0
 22 55  1  0  0  0  0
 26 56  1  0  0  0  0
 27 57  1  0  0  0  0
 28 58  1  0  0  0  0
 29 59  1  0  0  0  0
 33 60  1  0  0  0  0
 34 61  1  0  0  0  0
 35 62  1  0  0  0  0
 36 63  1  0  0  0  0
 37 64  1  0  0  0  0
 39 65  1  0  0  0  0
 39 66  1  0  0  0  0
 40 67  1  0  0  0  0
 40 68  1  0  0  0  0
 41 69  1  0  0  0  0
 42 70  1  0  0  0  0
M  END
