
  xtb     03212211033D
 energy: -35.941519549880 gnorm: 0.000208961310 xtb: 6.4.1 (afa7bdf)
 23 23  0     0  0            999 V2000
   -3.8790    0.7954    0.4120 C   0  0  0  0  0  0  0  0  0  0  0  0
   -3.2463   -0.5882    0.3503 C   0  0  0  0  0  0  0  0  0  0  0  0
   -1.8261   -0.5208    0.4376 O   0  0  0  0  0  0  0  0  0  0  0  0
   -1.1655   -0.2290   -0.6992 C   0  0  0  0  0  0  0  0  0  0  0  0
   -1.7222   -0.0477   -1.7580 O   0  0  0  0  0  0  0  0  0  0  0  0
    0.2927   -0.1683   -0.5054 C   0  0  0  0  0  0  0  0  0  0  0  0
    1.0996    0.1385   -1.6025 C   0  0  0  0  0  0  0  0  0  0  0  0
    2.4660    0.2108   -1.4703 C   0  0  0  0  0  0  0  0  0  0  0  0
    3.0711   -0.0253   -0.2309 C   0  0  0  0  0  0  0  0  0  0  0  0
    4.4353   -0.0141   -0.1084 N   0  0  0  0  0  0  0  0  0  0  0  0
    2.2600   -0.3340    0.8669 C   0  0  0  0  0  0  0  0  0  0  0  0
    0.8926   -0.4046    0.7317 C   0  0  0  0  0  0  0  0  0  0  0  0
   -3.5725    1.3786   -0.4528 H   0  0  0  0  0  0  0  0  0  0  0  0
   -4.9614    0.7027    0.4097 H   0  0  0  0  0  0  0  0  0  0  0  0
   -3.5664    1.3124    1.3163 H   0  0  0  0  0  0  0  0  0  0  0  0
   -3.5545   -1.2003    1.2011 H   0  0  0  0  0  0  0  0  0  0  0  0
   -3.5218   -1.0852   -0.5862 H   0  0  0  0  0  0  0  0  0  0  0  0
    0.6250    0.3204   -2.5547 H   0  0  0  0  0  0  0  0  0  0  0  0
    3.0861    0.4496   -2.3225 H   0  0  0  0  0  0  0  0  0  0  0  0
    4.9674    0.4269   -0.8389 H   0  0  0  0  0  0  0  0  0  0  0  0
    4.8234    0.0419    0.8177 H   0  0  0  0  0  0  0  0  0  0  0  0
    2.7221   -0.5181    1.8265 H   0  0  0  0  0  0  0  0  0  0  0  0
    0.2741   -0.6415    1.5830 H   0  0  0  0  0  0  0  0  0  0  0  0
  1  2  1  0  0  0  0
  2  3  1  0  0  0  0
  3  4  1  0  0  0  0
  4  5  2  0  0  0  0
  4  6  1  0  0  0  0
  6  7  2  0  0  0  0
  7  8  1  0  0  0  0
  8  9  2  0  0  0  0
  9 10  1  0  0  0  0
  9 11  1  0  0  0  0
 11 12  2  0  0  0  0
 12  6  1  0  0  0  0
  1 13  1  0  0  0  0
  1 14  1  0  0  0  0
  1 15  1  0  0  0  0
  2 16  1  0  0  0  0
  2 17  1  0  0  0  0
  7 18  1  0  0  0  0
  8 19  1  0  0  0  0
 10 20  1  0  0  0  0
 10 21  1  0  0  0  0
 11 22  1  0  0  0  0
 12 23  1  0  0  0  0
M  END
