
  xtb     03212211313D
 energy: -118.206056058225 gnorm: 0.000068740789 xtb: 6.4.1 (afa7bdf)
 74 81  0     0  0            999 V2000
   10.0796   -3.6470    1.0220 C   0  0  0  0  0  0  0  0  0  0  0  0
   10.2292   -2.6893    0.0318 C   0  0  0  0  0  0  0  0  0  0  0  0
    9.2314   -1.7608   -0.1969 C   0  0  0  0  0  0  0  0  0  0  0  0
    8.0700   -1.7793    0.5726 C   0  0  0  0  0  0  0  0  0  0  0  0
    6.9893   -0.8313    0.3413 C   0  0  0  0  0  0  0  0  0  0  0  0
    5.6874   -1.2154    0.4837 N   0  0  0  0  0  0  0  0  0  0  0  0
    4.9679   -0.1843    0.1443 C   0  0  0  0  0  0  0  0  0  0  0  0
    3.5260   -0.1190    0.1292 C   0  0  0  0  0  0  0  0  0  0  0  0
    2.7818   -1.2398    0.5010 C   0  0  0  0  0  0  0  0  0  0  0  0
    1.4053   -1.1911    0.4881 C   0  0  0  0  0  0  0  0  0  0  0  0
    0.7334   -0.0264    0.1117 C   0  0  0  0  0  0  0  0  0  0  0  0
   -0.7332    0.0230    0.1018 C   0  0  0  0  0  0  0  0  0  0  0  0
   -1.4114    1.1600    0.5456 C   0  0  0  0  0  0  0  0  0  0  0  0
   -2.7879    1.2087    0.5403 C   0  0  0  0  0  0  0  0  0  0  0  0
   -3.5258    0.1161    0.0820 C   0  0  0  0  0  0  0  0  0  0  0  0
   -4.9678    0.1820    0.0781 C   0  0  0  0  0  0  0  0  0  0  0  0
   -5.6917    1.2010    0.4440 N   0  0  0  0  0  0  0  0  0  0  0  0
   -6.9917    0.8180    0.2838 C   0  0  0  0  0  0  0  0  0  0  0  0
   -8.0782    1.7076    0.6695 C   0  0  0  0  0  0  0  0  0  0  0  0
   -9.2539    1.2182    1.2348 C   0  0  0  0  0  0  0  0  0  0  0  0
  -10.2577    2.0907    1.6104 C   0  0  0  0  0  0  0  0  0  0  0  0
  -10.1003    3.4559    1.4329 C   0  0  0  0  0  0  0  0  0  0  0  0
   -8.9254    3.9492    0.8898 C   0  0  0  0  0  0  0  0  0  0  0  0
   -7.9167    3.0823    0.5149 C   0  0  0  0  0  0  0  0  0  0  0  0
   -7.0027   -0.4735   -0.2124 C   0  0  0  0  0  0  0  0  0  0  0  0
   -8.0475   -1.3802   -0.6463 C   0  0  0  0  0  0  0  0  0  0  0  0
   -9.2595   -0.8992   -1.1437 C   0  0  0  0  0  0  0  0  0  0  0  0
  -10.2361   -1.7820   -1.5606 C   0  0  0  0  0  0  0  0  0  0  0  0
  -10.0195   -3.1497   -1.4964 C   0  0  0  0  0  0  0  0  0  0  0  0
   -8.8118   -3.6335   -1.0211 C   0  0  0  0  0  0  0  0  0  0  0  0
   -7.8294   -2.7577   -0.6014 C   0  0  0  0  0  0  0  0  0  0  0  0
   -5.7071   -0.8701   -0.3276 O   0  0  0  0  0  0  0  0  0  0  0  0
   -2.8564   -1.0228   -0.3661 C   0  0  0  0  0  0  0  0  0  0  0  0
   -1.4786   -1.0659   -0.3517 C   0  0  0  0  0  0  0  0  0  0  0  0
    1.4850    1.0904   -0.2551 C   0  0  0  0  0  0  0  0  0  0  0  0
    2.8629    1.0479   -0.2509 C   0  0  0  0  0  0  0  0  0  0  0  0
    5.7119    0.8813   -0.2149 O   0  0  0  0  0  0  0  0  0  0  0  0
    7.0062    0.4859   -0.0819 C   0  0  0  0  0  0  0  0  0  0  0  0
    8.0566    1.4539   -0.3302 C   0  0  0  0  0  0  0  0  0  0  0  0
    9.2793    1.3785    0.3384 C   0  0  0  0  0  0  0  0  0  0  0  0
   10.2610    2.3187    0.0945 C   0  0  0  0  0  0  0  0  0  0  0  0
   10.0390    3.3471   -0.8081 C   0  0  0  0  0  0  0  0  0  0  0  0
    8.8211    3.4383   -1.4616 C   0  0  0  0  0  0  0  0  0  0  0  0
    7.8336    2.5019   -1.2240 C   0  0  0  0  0  0  0  0  0  0  0  0
    7.9161   -2.7583    1.5513 C   0  0  0  0  0  0  0  0  0  0  0  0
    8.9186   -3.6823    1.7767 C   0  0  0  0  0  0  0  0  0  0  0  0
   10.8636   -4.3687    1.1987 H   0  0  0  0  0  0  0  0  0  0  0  0
   11.1267   -2.6692   -0.5692 H   0  0  0  0  0  0  0  0  0  0  0  0
    9.3433   -1.0261   -0.9808 H   0  0  0  0  0  0  0  0  0  0  0  0
    3.3087   -2.1333    0.7957 H   0  0  0  0  0  0  0  0  0  0  0  0
    0.8364   -2.0562    0.7949 H   0  0  0  0  0  0  0  0  0  0  0  0
   -0.8477    2.0017    0.9197 H   0  0  0  0  0  0  0  0  0  0  0  0
   -3.3198    2.0795    0.8893 H   0  0  0  0  0  0  0  0  0  0  0  0
   -9.3722    0.1557    1.3896 H   0  0  0  0  0  0  0  0  0  0  0  0
  -11.1664    1.7041    2.0485 H   0  0  0  0  0  0  0  0  0  0  0  0
  -10.8892    4.1334    1.7250 H   0  0  0  0  0  0  0  0  0  0  0  0
   -8.7955    5.0138    0.7602 H   0  0  0  0  0  0  0  0  0  0  0  0
   -6.9931    3.4530    0.0977 H   0  0  0  0  0  0  0  0  0  0  0  0
   -9.4230    0.1655   -1.2121 H   0  0  0  0  0  0  0  0  0  0  0  0
  -11.1712   -1.4011   -1.9441 H   0  0  0  0  0  0  0  0  0  0  0  0
  -10.7877   -3.8354   -1.8215 H   0  0  0  0  0  0  0  0  0  0  0  0
   -8.6354   -4.6983   -0.9766 H   0  0  0  0  0  0  0  0  0  0  0  0
   -6.8875   -3.1314   -0.2281 H   0  0  0  0  0  0  0  0  0  0  0  0
   -3.4257   -1.8661   -0.7273 H   0  0  0  0  0  0  0  0  0  0  0  0
   -0.9676   -1.9441   -0.7180 H   0  0  0  0  0  0  0  0  0  0  0  0
    0.9791    1.9918   -0.5684 H   0  0  0  0  0  0  0  0  0  0  0  0
    3.4372    1.9148   -0.5415 H   0  0  0  0  0  0  0  0  0  0  0  0
    9.4473    0.5896    1.0556 H   0  0  0  0  0  0  0  0  0  0  0  0
   11.2043    2.2530    0.6165 H   0  0  0  0  0  0  0  0  0  0  0  0
   10.8110    4.0782   -0.9965 H   0  0  0  0  0  0  0  0  0  0  0  0
    8.6407    4.2423   -2.1599 H   0  0  0  0  0  0  0  0  0  0  0  0
    6.8836    2.5686   -1.7333 H   0  0  0  0  0  0  0  0  0  0  0  0
    7.0032   -2.7788    2.1262 H   0  0  0  0  0  0  0  0  0  0  0  0
    8.7946   -4.4345    2.5421 H   0  0  0  0  0  0  0  0  0  0  0  0
  1  2  2  0  0  0  0
  2  3  1  0  0  0  0
  3  4  2  0  0  0  0
  4  5  1  0  0  0  0
  5  6  1  0  0  0  0
  6  7  2  0  0  0  0
  7  8  1  0  0  0  0
  8  9  2  0  0  0  0
  9 10  1  0  0  0  0
 10 11  2  0  0  0  0
 11 12  1  0  0  0  0
 12 13  2  0  0  0  0
 13 14  1  0  0  0  0
 14 15  2  0  0  0  0
 15 16  1  0  0  0  0
 16 17  2  0  0  0  0
 17 18  1  0  0  0  0
 18 19  1  0  0  0  0
 19 20  2  0  0  0  0
 20 21  1  0  0  0  0
 21 22  2  0  0  0  0
 22 23  1  0  0  0  0
 23 24  2  0  0  0  0
 18 25  2  0  0  0  0
 25 26  1  0  0  0  0
 26 27  2  0  0  0  0
 27 28  1  0  0  0  0
 28 29  2  0  0  0  0
 29 30  1  0  0  0  0
 30 31  2  0  0  0  0
 25 32  1  0  0  0  0
 15 33  1  0  0  0  0
 33 34  2  0  0  0  0
 11 35  1  0  0  0  0
 35 36  2  0  0  0  0
  7 37  1  0  0  0  0
 37 38  1  0  0  0  0
 38 39  1  0  0  0  0
 39 40  2  0  0  0  0
 40 41  1  0  0  0  0
 41 42  2  0  0  0  0
 42 43  1  0  0  0  0
 43 44  2  0  0  0  0
  4 45  1  0  0  0  0
 45 46  2  0  0  0  0
 46  1  1  0  0  0  0
 38  5  2  0  0  0  0
 44 39  1  0  0  0  0
 36  8  1  0  0  0  0
 34 12  1  0  0  0  0
 32 16  1  0  0  0  0
 24 19  1  0  0  0  0
 31 26  1  0  0  0  0
  1 47  1  0  0  0  0
  2 48  1  0  0  0  0
  3 49  1  0  0  0  0
  9 50  1  0  0  0  0
 10 51  1  0  0  0  0
 13 52  1  0  0  0  0
 14 53  1  0  0  0  0
 20 54  1  0  0  0  0
 21 55  1  0  0  0  0
 22 56  1  0  0  0  0
 23 57  1  0  0  0  0
 24 58  1  0  0  0  0
 27 59  1  0  0  0  0
 28 60  1  0  0  0  0
 29 61  1  0  0  0  0
 30 62  1  0  0  0  0
 31 63  1  0  0  0  0
 33 64  1  0  0  0  0
 34 65  1  0  0  0  0
 35 66  1  0  0  0  0
 36 67  1  0  0  0  0
 40 68  1  0  0  0  0
 41 69  1  0  0  0  0
 42 70  1  0  0  0  0
 43 71  1  0  0  0  0
 44 72  1  0  0  0  0
 45 73  1  0  0  0  0
 46 74  1  0  0  0  0
M  END
