
  xtb     03212211263D
 energy: -53.446779920019 gnorm: 0.000201828817 xtb: 6.4.1 (afa7bdf)
 31 33  0     0  0            999 V2000
    8.5315    1.7711   -0.3273 N   0  0  0  0  0  0  0  0  0  0  0  0
    7.4366    1.4776   -0.1544 C   0  0  0  0  0  0  0  0  0  0  0  0
    6.0872    1.1161    0.0572 C   0  0  0  0  0  0  0  0  0  0  0  0
    5.7269    0.4084    1.2071 C   0  0  0  0  0  0  0  0  0  0  0  0
    4.4113    0.0561    1.4125 C   0  0  0  0  0  0  0  0  0  0  0  0
    3.4358    0.4058    0.4720 C   0  0  0  0  0  0  0  0  0  0  0  0
    2.0934    0.0445    0.6833 C   0  0  0  0  0  0  0  0  0  0  0  0
    0.9431   -0.2739    0.8784 C   0  0  0  0  0  0  0  0  0  0  0  0
   -0.3881   -0.6386    1.0941 C   0  0  0  0  0  0  0  0  0  0  0  0
   -0.8508   -1.3198    2.1103 N   0  0  0  0  0  0  0  0  0  0  0  0
   -2.1784   -1.4288    1.8898 C   0  0  0  0  0  0  0  0  0  0  0  0
   -2.4998   -0.7921    0.7104 C   0  0  0  0  0  0  0  0  0  0  0  0
   -3.7476   -0.6009    0.0061 C   0  0  0  0  0  0  0  0  0  0  0  0
   -4.9383   -1.1214    0.5165 C   0  0  0  0  0  0  0  0  0  0  0  0
   -6.1247   -0.9328   -0.1644 C   0  0  0  0  0  0  0  0  0  0  0  0
   -6.1432   -0.2268   -1.3574 C   0  0  0  0  0  0  0  0  0  0  0  0
   -4.9653    0.2925   -1.8697 C   0  0  0  0  0  0  0  0  0  0  0  0
   -3.7739    0.1089   -1.1958 C   0  0  0  0  0  0  0  0  0  0  0  0
   -1.3467   -0.2886    0.2072 O   0  0  0  0  0  0  0  0  0  0  0  0
    3.8011    1.1147   -0.6778 C   0  0  0  0  0  0  0  0  0  0  0  0
    5.1165    1.4673   -0.8844 C   0  0  0  0  0  0  0  0  0  0  0  0
    6.4857    0.1424    1.9282 H   0  0  0  0  0  0  0  0  0  0  0  0
    4.1203   -0.4906    2.2967 H   0  0  0  0  0  0  0  0  0  0  0  0
   -2.8088   -1.9489    2.5805 H   0  0  0  0  0  0  0  0  0  0  0  0
   -4.9278   -1.6715    1.4444 H   0  0  0  0  0  0  0  0  0  0  0  0
   -7.0419   -1.3383    0.2362 H   0  0  0  0  0  0  0  0  0  0  0  0
   -7.0737   -0.0822   -1.8856 H   0  0  0  0  0  0  0  0  0  0  0  0
   -4.9762    0.8431   -2.7987 H   0  0  0  0  0  0  0  0  0  0  0  0
   -2.8538    0.5120   -1.5917 H   0  0  0  0  0  0  0  0  0  0  0  0
    3.0433    1.3811   -1.3993 H   0  0  0  0  0  0  0  0  0  0  0  0
    5.4062    2.0141   -1.7697 H   0  0  0  0  0  0  0  0  0  0  0  0
  1  2  3  0  0  0  0
  2  3  1  0  0  0  0
  3  4  2  0  0  0  0
  4  5  1  0  0  0  0
  5  6  2  0  0  0  0
  6  7  1  0  0  0  0
  7  8  3  0  0  0  0
  8  9  1  0  0  0  0
  9 10  2  0  0  0  0
 10 11  1  0  0  0  0
 11 12  2  0  0  0  0
 12 13  1  0  0  0  0
 13 14  2  0  0  0  0
 14 15  1  0  0  0  0
 15 16  2  0  0  0  0
 16 17  1  0  0  0  0
 17 18  2  0  0  0  0
 12 19  1  0  0  0  0
  6 20  1  0  0  0  0
 20 21  2  0  0  0  0
 21  3  1  0  0  0  0
 19  9  1  0  0  0  0
 18 13  1  0  0  0  0
  4 22  1  0  0  0  0
  5 23  1  0  0  0  0
 11 24  1  0  0  0  0
 14 25  1  0  0  0  0
 15 26  1  0  0  0  0
 16 27  1  0  0  0  0
 17 28  1  0  0  0  0
 18 29  1  0  0  0  0
 20 30  1  0  0  0  0
 21 31  1  0  0  0  0
M  END
