
  xtb     03212212263D
 energy: -51.089814864522 gnorm: 0.000205233460 xtb: 6.4.1 (afa7bdf)
 32 33  0     0  0            999 V2000
    4.8217   -0.1195   -2.2236 C   0  0  0  0  0  0  0  0  0  0  0  0
    3.9558    0.2902   -1.0849 C   0  0  0  0  0  0  0  0  0  0  0  0
    2.6388    0.0803   -1.0565 C   0  0  0  0  0  0  0  0  0  0  0  0
    1.6816    0.4136   -0.0350 C   0  0  0  0  0  0  0  0  0  0  0  0
    0.4350    0.0684   -0.1894 N   0  0  0  0  0  0  0  0  0  0  0  0
   -0.2584    0.5062    0.9156 C   0  0  0  0  0  0  0  0  0  0  0  0
   -1.5788    0.3721    1.1977 C   0  0  0  0  0  0  0  0  0  0  0  0
   -2.5897   -0.2711    0.4109 C   0  0  0  0  0  0  0  0  0  0  0  0
   -2.3061   -0.8800   -0.8210 C   0  0  0  0  0  0  0  0  0  0  0  0
   -3.2985   -1.4919   -1.5493 C   0  0  0  0  0  0  0  0  0  0  0  0
   -4.6094   -1.5156   -1.0710 C   0  0  0  0  0  0  0  0  0  0  0  0
   -5.5574   -2.1307   -1.8206 O   0  0  0  0  0  0  0  0  0  0  0  0
   -4.9058   -0.9141    0.1498 C   0  0  0  0  0  0  0  0  0  0  0  0
   -3.9097   -0.3018    0.8784 C   0  0  0  0  0  0  0  0  0  0  0  0
    0.6925    1.1882    1.8158 C   0  0  0  0  0  0  0  0  0  0  0  0
    0.5276    1.7275    2.8900 O   0  0  0  0  0  0  0  0  0  0  0  0
    1.9075    1.0895    1.1517 N   0  0  0  0  0  0  0  0  0  0  0  0
    3.1083    1.6493    1.7024 C   0  0  0  0  0  0  0  0  0  0  0  0
    5.3490    0.7468   -2.6233 H   0  0  0  0  0  0  0  0  0  0  0  0
    4.2395   -0.5782   -3.0183 H   0  0  0  0  0  0  0  0  0  0  0  0
    5.5765   -0.8286   -1.8827 H   0  0  0  0  0  0  0  0  0  0  0  0
    4.4743    0.7712   -0.2705 H   0  0  0  0  0  0  0  0  0  0  0  0
    2.1652   -0.4146   -1.8945 H   0  0  0  0  0  0  0  0  0  0  0  0
   -1.8937    0.8083    2.1382 H   0  0  0  0  0  0  0  0  0  0  0  0
   -1.2901   -0.8554   -1.1804 H   0  0  0  0  0  0  0  0  0  0  0  0
   -3.0894   -1.9630   -2.4967 H   0  0  0  0  0  0  0  0  0  0  0  0
   -6.4148   -2.0774   -1.3804 H   0  0  0  0  0  0  0  0  0  0  0  0
   -5.9223   -0.9313    0.5222 H   0  0  0  0  0  0  0  0  0  0  0  0
   -4.1494    0.1617    1.8244 H   0  0  0  0  0  0  0  0  0  0  0  0
    2.8207    2.1226    2.6437 H   0  0  0  0  0  0  0  0  0  0  0  0
    3.8481    0.8730    1.9077 H   0  0  0  0  0  0  0  0  0  0  0  0
    3.5318    2.4045    1.0375 H   0  0  0  0  0  0  0  0  0  0  0  0
  1  2  1  0  0  0  0
  2  3  2  0  0  0  0
  3  4  1  0  0  0  0
  4  5  2  0  0  0  0
  5  6  1  0  0  0  0
  6  7  2  0  0  0  0
  7  8  1  0  0  0  0
  8  9  2  0  0  0  0
  9 10  1  0  0  0  0
 10 11  2  0  0  0  0
 11 12  1  0  0  0  0
 11 13  1  0  0  0  0
 13 14  2  0  0  0  0
  6 15  1  0  0  0  0
 15 16  2  0  0  0  0
 15 17  1  0  0  0  0
 17 18  1  0  0  0  0
 17  4  1  0  0  0  0
 14  8  1  0  0  0  0
  1 19  1  0  0  0  0
  1 20  1  0  0  0  0
  1 21  1  0  0  0  0
  2 22  1  0  0  0  0
  3 23  1  0  0  0  0
  7 24  1  0  0  0  0
  9 25  1  0  0  0  0
 10 26  1  0  0  0  0
 12 27  1  0  0  0  0
 13 28  1  0  0  0  0
 14 29  1  0  0  0  0
 18 30  1  0  0  0  0
 18 31  1  0  0  0  0
 18 32  1  0  0  0  0
M  END
