
  xtb     03212212073D
 energy: -88.503179471635 gnorm: 0.000095400545 xtb: 6.4.1 (afa7bdf)
 60 66  0     0  0            999 V2000
    5.6711    1.4209    5.9277 C   0  0  0  0  0  0  0  0  0  0  0  0
    5.5182    0.1597    5.0868 C   0  0  0  0  0  0  0  0  0  0  0  0
    5.0331    0.4798    3.6761 C   0  0  0  0  0  0  0  0  0  0  0  0
    4.8773   -0.7856    2.8258 C   0  0  0  0  0  0  0  0  0  0  0  0
    4.4424   -0.4795    1.4910 N   0  0  0  0  0  0  0  0  0  0  0  0
    5.2658   -0.1529    0.4381 C   0  0  0  0  0  0  0  0  0  0  0  0
    6.6519   -0.1203    0.3730 C   0  0  0  0  0  0  0  0  0  0  0  0
    7.2348    0.2289   -0.8299 C   0  0  0  0  0  0  0  0  0  0  0  0
    6.4656    0.5432   -1.9481 C   0  0  0  0  0  0  0  0  0  0  0  0
    5.0865    0.5176   -1.8905 C   0  0  0  0  0  0  0  0  0  0  0  0
    4.4779    0.1692   -0.6925 C   0  0  0  0  0  0  0  0  0  0  0  0
    3.1088    0.0451   -0.2786 C   0  0  0  0  0  0  0  0  0  0  0  0
    1.9007    0.2313   -0.9275 C   0  0  0  0  0  0  0  0  0  0  0  0
    0.7209    0.0190   -0.2176 C   0  0  0  0  0  0  0  0  0  0  0  0
   -0.5237    0.1913   -0.8552 C   0  0  0  0  0  0  0  0  0  0  0  0
   -1.5915    0.3303   -1.4062 C   0  0  0  0  0  0  0  0  0  0  0  0
   -2.8202    0.5011   -2.0685 C   0  0  0  0  0  0  0  0  0  0  0  0
   -2.8685    1.2681   -3.2365 C   0  0  0  0  0  0  0  0  0  0  0  0
   -4.0528    1.4539   -3.9124 C   0  0  0  0  0  0  0  0  0  0  0  0
   -5.2408    0.8761   -3.4535 C   0  0  0  0  0  0  0  0  0  0  0  0
   -6.4793    1.0463   -4.1348 C   0  0  0  0  0  0  0  0  0  0  0  0
   -7.6174    0.4722   -3.6786 C   0  0  0  0  0  0  0  0  0  0  0  0
   -7.6204   -0.3254   -2.4969 C   0  0  0  0  0  0  0  0  0  0  0  0
   -8.7804   -0.9310   -2.0111 C   0  0  0  0  0  0  0  0  0  0  0  0
   -8.7477   -1.6993   -0.8618 C   0  0  0  0  0  0  0  0  0  0  0  0
   -7.5645   -1.8819   -0.1702 C   0  0  0  0  0  0  0  0  0  0  0  0
   -6.3793   -1.2958   -0.6186 C   0  0  0  0  0  0  0  0  0  0  0  0
   -5.1407   -1.4633    0.0661 C   0  0  0  0  0  0  0  0  0  0  0  0
   -4.0019   -0.8900   -0.3900 C   0  0  0  0  0  0  0  0  0  0  0  0
   -3.9974   -0.0961   -1.5717 C   0  0  0  0  0  0  0  0  0  0  0  0
   -5.2118    0.0922   -2.2730 C   0  0  0  0  0  0  0  0  0  0  0  0
   -6.4025   -0.5082   -1.7959 C   0  0  0  0  0  0  0  0  0  0  0  0
    0.7641   -0.3700    1.1325 C   0  0  0  0  0  0  0  0  0  0  0  0
    1.9599   -0.5514    1.7917 C   0  0  0  0  0  0  0  0  0  0  0  0
    3.1385   -0.3479    1.0831 C   0  0  0  0  0  0  0  0  0  0  0  0
    6.3889    2.0989    5.4713 H   0  0  0  0  0  0  0  0  0  0  0  0
    6.0198    1.1738    6.9274 H   0  0  0  0  0  0  0  0  0  0  0  0
    4.7189    1.9394    6.0143 H   0  0  0  0  0  0  0  0  0  0  0  0
    6.4789   -0.3576    5.0300 H   0  0  0  0  0  0  0  0  0  0  0  0
    4.8075   -0.5152    5.5696 H   0  0  0  0  0  0  0  0  0  0  0  0
    4.0711    0.9953    3.7252 H   0  0  0  0  0  0  0  0  0  0  0  0
    5.7432    1.1500    3.1861 H   0  0  0  0  0  0  0  0  0  0  0  0
    4.1479   -1.4576    3.2869 H   0  0  0  0  0  0  0  0  0  0  0  0
    5.8327   -1.3152    2.7686 H   0  0  0  0  0  0  0  0  0  0  0  0
    7.2641   -0.3572    1.2303 H   0  0  0  0  0  0  0  0  0  0  0  0
    8.3120    0.2604   -0.9050 H   0  0  0  0  0  0  0  0  0  0  0  0
    6.9600    0.8112   -2.8699 H   0  0  0  0  0  0  0  0  0  0  0  0
    4.4896    0.7626   -2.7561 H   0  0  0  0  0  0  0  0  0  0  0  0
    1.8651    0.5305   -1.9642 H   0  0  0  0  0  0  0  0  0  0  0  0
   -1.9559    1.7176   -3.6012 H   0  0  0  0  0  0  0  0  0  0  0  0
   -4.0727    2.0523   -4.8125 H   0  0  0  0  0  0  0  0  0  0  0  0
   -6.4868    1.6489   -5.0325 H   0  0  0  0  0  0  0  0  0  0  0  0
   -8.5526    0.6065   -4.2040 H   0  0  0  0  0  0  0  0  0  0  0  0
   -9.7098   -0.7936   -2.5455 H   0  0  0  0  0  0  0  0  0  0  0  0
   -9.6555   -2.1615   -0.5011 H   0  0  0  0  0  0  0  0  0  0  0  0
   -7.5477   -2.4838    0.7273 H   0  0  0  0  0  0  0  0  0  0  0  0
   -5.1328   -2.0655    0.9639 H   0  0  0  0  0  0  0  0  0  0  0  0
   -3.0648   -1.0233    0.1315 H   0  0  0  0  0  0  0  0  0  0  0  0
   -0.1678   -0.5215    1.6577 H   0  0  0  0  0  0  0  0  0  0  0  0
    1.9699   -0.8431    2.8314 H   0  0  0  0  0  0  0  0  0  0  0  0
  1  2  1  0  0  0  0
  2  3  1  0  0  0  0
  3  4  1  0  0  0  0
  4  5  1  0  0  0  0
  5  6  1  0  0  0  0
  6  7  2  0  0  0  0
  7  8  1  0  0  0  0
  8  9  2  0  0  0  0
  9 10  1  0  0  0  0
 10 11  2  0  0  0  0
 11 12  1  0  0  0  0
 12 13  2  0  0  0  0
 13 14  1  0  0  0  0
 14 15  1  0  0  0  0
 15 16  3  0  0  0  0
 16 17  1  0  0  0  0
 17 18  2  0  0  0  0
 18 19  1  0  0  0  0
 19 20  2  0  0  0  0
 20 21  1  0  0  0  0
 21 22  2  0  0  0  0
 22 23  1  0  0  0  0
 23 24  2  0  0  0  0
 24 25  1  0  0  0  0
 25 26  2  0  0  0  0
 26 27  1  0  0  0  0
 27 28  2  0  0  0  0
 28 29  1  0  0  0  0
 29 30  2  0  0  0  0
 30 31  1  0  0  0  0
 31 32  2  0  0  0  0
 14 33  2  0  0  0  0
 33 34  1  0  0  0  0
 34 35  2  0  0  0  0
 35  5  1  0  0  0  0
 11  6  1  0  0  0  0
 35 12  1  0  0  0  0
 30 17  1  0  0  0  0
 31 20  1  0  0  0  0
 32 23  1  0  0  0  0
 32 27  1  0  0  0  0
  1 36  1  0  0  0  0
  1 37  1  0  0  0  0
  1 38  1  0  0  0  0
  2 39  1  0  0  0  0
  2 40  1  0  0  0  0
  3 41  1  0  0  0  0
  3 42  1  0  0  0  0
  4 43  1  0  0  0  0
  4 44  1  0  0  0  0
  7 45  1  0  0  0  0
  8 46  1  0  0  0  0
  9 47  1  0  0  0  0
 10 48  1  0  0  0  0
 13 49  1  0  0  0  0
 18 50  1  0  0  0  0
 19 51  1  0  0  0  0
 21 52  1  0  0  0  0
 22 53  1  0  0  0  0
 24 54  1  0  0  0  0
 25 55  1  0  0  0  0
 26 56  1  0  0  0  0
 28 57  1  0  0  0  0
 29 58  1  0  0  0  0
 33 59  1  0  0  0  0
 34 60  1  0  0  0  0
M  END
