
  xtb     03212210373D
 energy: -90.137504076605 gnorm: 0.000190541850 xtb: 6.4.1 (afa7bdf)
 62 66  0     0  0            999 V2000
   -5.4215    2.7525    2.7771 C   0  0  0  0  0  0  0  0  0  0  0  0
   -5.6490    2.9418    1.2819 C   0  0  0  0  0  0  0  0  0  0  0  0
   -4.4121    2.6302    0.4375 C   0  0  0  0  0  0  0  0  0  0  0  0
   -3.9068    1.1903    0.5370 C   0  0  0  0  0  0  0  0  0  0  0  0
   -4.9232    0.1631    0.0443 C   0  0  0  0  0  0  0  0  0  0  0  0
   -4.3368   -1.2536   -0.0046 C   0  0  0  0  0  0  0  0  0  0  0  0
   -3.2910   -1.3774   -0.9834 N   0  0  0  0  0  0  0  0  0  0  0  0
   -3.4978   -1.4878   -2.3409 C   0  0  0  0  0  0  0  0  0  0  0  0
   -4.6873   -1.5790   -3.0500 C   0  0  0  0  0  0  0  0  0  0  0  0
   -4.6121   -1.6977   -4.4246 C   0  0  0  0  0  0  0  0  0  0  0  0
   -3.3870   -1.7246   -5.0872 C   0  0  0  0  0  0  0  0  0  0  0  0
   -2.1996   -1.6359   -4.3886 C   0  0  0  0  0  0  0  0  0  0  0  0
   -2.2500   -1.5171   -3.0063 C   0  0  0  0  0  0  0  0  0  0  0  0
   -1.2470   -1.4097   -1.9841 C   0  0  0  0  0  0  0  0  0  0  0  0
    0.1350   -1.3811   -2.0093 C   0  0  0  0  0  0  0  0  0  0  0  0
    0.8484   -1.2724   -0.8143 C   0  0  0  0  0  0  0  0  0  0  0  0
    2.2928   -1.2546   -0.8774 C   0  0  0  0  0  0  0  0  0  0  0  0
    3.1473   -1.1536    0.1537 C   0  0  0  0  0  0  0  0  0  0  0  0
    4.5902   -1.1612    0.0193 C   0  0  0  0  0  0  0  0  0  0  0  0
    5.2143   -1.7897   -1.0154 C   0  0  0  0  0  0  0  0  0  0  0  0
    6.6481   -1.8492   -1.1604 C   0  0  0  0  0  0  0  0  0  0  0  0
    7.2371   -2.3843   -2.0696 O   0  0  0  0  0  0  0  0  0  0  0  0
    7.3943   -1.2585   -0.1722 O   0  0  0  0  0  0  0  0  0  0  0  0
    6.8166   -0.6171    0.8667 C   0  0  0  0  0  0  0  0  0  0  0  0
    7.6793   -0.0384    1.7965 C   0  0  0  0  0  0  0  0  0  0  0  0
    7.1844    0.6586    2.8804 C   0  0  0  0  0  0  0  0  0  0  0  0
    8.0986    1.2809    3.8880 C   0  0  0  0  0  0  0  0  0  0  0  0
    5.7991    0.7806    3.0204 C   0  0  0  0  0  0  0  0  0  0  0  0
    4.9415    0.2086    2.1122 C   0  0  0  0  0  0  0  0  0  0  0  0
    5.4244   -0.5198    1.0179 C   0  0  0  0  0  0  0  0  0  0  0  0
    0.1355   -1.1910    0.3966 C   0  0  0  0  0  0  0  0  0  0  0  0
   -1.2394   -1.2122    0.4440 C   0  0  0  0  0  0  0  0  0  0  0  0
   -1.9427   -1.3217   -0.7514 C   0  0  0  0  0  0  0  0  0  0  0  0
   -6.2897    3.0940    3.3362 H   0  0  0  0  0  0  0  0  0  0  0  0
   -5.2557    1.7062    3.0207 H   0  0  0  0  0  0  0  0  0  0  0  0
   -4.5564    3.3246    3.1053 H   0  0  0  0  0  0  0  0  0  0  0  0
   -6.4857    2.3203    0.9582 H   0  0  0  0  0  0  0  0  0  0  0  0
   -5.9288    3.9818    1.0977 H   0  0  0  0  0  0  0  0  0  0  0  0
   -4.6406    2.8491   -0.6087 H   0  0  0  0  0  0  0  0  0  0  0  0
   -3.6037    3.2988    0.7434 H   0  0  0  0  0  0  0  0  0  0  0  0
   -3.6328    0.9667    1.5695 H   0  0  0  0  0  0  0  0  0  0  0  0
   -3.0000    1.1097   -0.0674 H   0  0  0  0  0  0  0  0  0  0  0  0
   -5.2607    0.4422   -0.9562 H   0  0  0  0  0  0  0  0  0  0  0  0
   -5.7914    0.1475    0.7043 H   0  0  0  0  0  0  0  0  0  0  0  0
   -5.1277   -1.9699   -0.2510 H   0  0  0  0  0  0  0  0  0  0  0  0
   -3.9300   -1.5216    0.9732 H   0  0  0  0  0  0  0  0  0  0  0  0
   -5.6452   -1.5613   -2.5523 H   0  0  0  0  0  0  0  0  0  0  0  0
   -5.5240   -1.7709   -4.9987 H   0  0  0  0  0  0  0  0  0  0  0  0
   -3.3713   -1.8177   -6.1628 H   0  0  0  0  0  0  0  0  0  0  0  0
   -1.2503   -1.6595   -4.9019 H   0  0  0  0  0  0  0  0  0  0  0  0
    0.6613   -1.4467   -2.9503 H   0  0  0  0  0  0  0  0  0  0  0  0
    2.6982   -1.3099   -1.8798 H   0  0  0  0  0  0  0  0  0  0  0  0
    2.7682   -1.0561    1.1593 H   0  0  0  0  0  0  0  0  0  0  0  0
    4.6590   -2.3115   -1.7778 H   0  0  0  0  0  0  0  0  0  0  0  0
    8.7410   -0.1477    1.6383 H   0  0  0  0  0  0  0  0  0  0  0  0
    7.9102    2.3512    3.9592 H   0  0  0  0  0  0  0  0  0  0  0  0
    9.1395    1.1255    3.6189 H   0  0  0  0  0  0  0  0  0  0  0  0
    7.9236    0.8478    4.8721 H   0  0  0  0  0  0  0  0  0  0  0  0
    5.4011    1.3363    3.8568 H   0  0  0  0  0  0  0  0  0  0  0  0
    3.8783    0.3348    2.2420 H   0  0  0  0  0  0  0  0  0  0  0  0
    0.6792   -1.1082    1.3245 H   0  0  0  0  0  0  0  0  0  0  0  0
   -1.7496   -1.1428    1.3928 H   0  0  0  0  0  0  0  0  0  0  0  0
  1  2  1  0  0  0  0
  2  3  1  0  0  0  0
  3  4  1  0  0  0  0
  4  5  1  0  0  0  0
  5  6  1  0  0  0  0
  6  7  1  0  0  0  0
  7  8  1  0  0  0  0
  8  9  2  0  0  0  0
  9 10  1  0  0  0  0
 10 11  2  0  0  0  0
 11 12  1  0  0  0  0
 12 13  2  0  0  0  0
 13 14  1  0  0  0  0
 14 15  2  0  0  0  0
 15 16  1  0  0  0  0
 16 17  1  0  0  0  0
 17 18  2  0  0  0  0
 18 19  1  0  0  0  0
 19 20  2  0  0  0  0
 20 21  1  0  0  0  0
 21 22  2  0  0  0  0
 21 23  1  0  0  0  0
 23 24  1  0  0  0  0
 24 25  2  0  0  0  0
 25 26  1  0  0  0  0
 26 27  1  0  0  0  0
 26 28  2  0  0  0  0
 28 29  1  0  0  0  0
 29 30  2  0  0  0  0
 16 31  2  0  0  0  0
 31 32  1  0  0  0  0
 32 33  2  0  0  0  0
 33  7  1  0  0  0  0
 13  8  1  0  0  0  0
 33 14  1  0  0  0  0
 30 19  1  0  0  0  0
 30 24  1  0  0  0  0
  1 34  1  0  0  0  0
  1 35  1  0  0  0  0
  1 36  1  0  0  0  0
  2 37  1  0  0  0  0
  2 38  1  0  0  0  0
  3 39  1  0  0  0  0
  3 40  1  0  0  0  0
  4 41  1  0  0  0  0
  4 42  1  0  0  0  0
  5 43  1  0  0  0  0
  5 44  1  0  0  0  0
  6 45  1  0  0  0  0
  6 46  1  0  0  0  0
  9 47  1  0  0  0  0
 10 48  1  0  0  0  0
 11 49  1  0  0  0  0
 12 50  1  0  0  0  0
 15 51  1  0  0  0  0
 17 52  1  0  0  0  0
 18 53  1  0  0  0  0
 20 54  1  0  0  0  0
 25 55  1  0  0  0  0
 27 56  1  0  0  0  0
 27 57  1  0  0  0  0
 27 58  1  0  0  0  0
 28 59  1  0  0  0  0
 29 60  1  0  0  0  0
 31 61  1  0  0  0  0
 32 62  1  0  0  0  0
M  END
