
  xtb     03212210303D
 energy: -79.207985445173 gnorm: 0.000279839441 xtb: 6.4.1 (afa7bdf)
 40 42  0     0  0            999 V2000
    5.3173    0.5528   -1.0310 C   0  0  0  0  0  0  0  0  0  0  0  0
    4.0831    1.1774   -0.7461 O   0  0  0  0  0  0  0  0  0  0  0  0
    3.0205    0.5318   -0.2136 C   0  0  0  0  0  0  0  0  0  0  0  0
    2.0292    1.4179    0.2489 C   0  0  0  0  0  0  0  0  0  0  0  0
    2.2743    2.8900    0.1406 C   0  0  0  0  0  0  0  0  0  0  0  0
    0.8503    0.9247    0.7919 C   0  0  0  0  0  0  0  0  0  0  0  0
    0.6381   -0.4476    0.9032 C   0  0  0  0  0  0  0  0  0  0  0  0
    1.6234   -1.3400    0.4916 C   0  0  0  0  0  0  0  0  0  0  0  0
    1.4288   -2.8125    0.6807 C   0  0  0  0  0  0  0  0  0  0  0  0
    2.7950   -0.8389   -0.0822 C   0  0  0  0  0  0  0  0  0  0  0  0
    3.9259   -2.0289   -0.6569 Cl  0  0  0  0  0  0  0  0  0  0  0  0
   -0.5456   -0.9653    1.4300 O   0  0  0  0  0  0  0  0  0  0  0  0
   -1.6850   -0.6274    0.7502 C   0  0  0  0  0  0  0  0  0  0  0  0
   -2.5280   -1.6790    0.3331 C   0  0  0  0  0  0  0  0  0  0  0  0
   -2.2620   -3.0533    0.7026 C   0  0  0  0  0  0  0  0  0  0  0  0
   -2.9291   -4.0092    0.3438 O   0  0  0  0  0  0  0  0  0  0  0  0
   -3.6841   -1.3846   -0.4245 C   0  0  0  0  0  0  0  0  0  0  0  0
   -4.5031   -2.3316   -0.8487 O   0  0  0  0  0  0  0  0  0  0  0  0
   -3.9670   -0.0466   -0.7363 C   0  0  0  0  0  0  0  0  0  0  0  0
   -5.3735    0.2406   -1.6949 Cl  0  0  0  0  0  0  0  0  0  0  0  0
   -3.1843    0.9966   -0.2695 C   0  0  0  0  0  0  0  0  0  0  0  0
   -3.5483    2.4074   -0.5834 C   0  0  0  0  0  0  0  0  0  0  0  0
   -2.0351    0.6948    0.4947 C   0  0  0  0  0  0  0  0  0  0  0  0
   -1.3613    1.8108    1.2197 C   0  0  0  0  0  0  0  0  0  0  0  0
   -1.9842    2.6922    1.7478 O   0  0  0  0  0  0  0  0  0  0  0  0
   -0.0226    1.8526    1.3124 O   0  0  0  0  0  0  0  0  0  0  0  0
    5.6974   -0.0083   -0.1754 H   0  0  0  0  0  0  0  0  0  0  0  0
    5.9973    1.3766   -1.2496 H   0  0  0  0  0  0  0  0  0  0  0  0
    5.2556   -0.0981   -1.9053 H   0  0  0  0  0  0  0  0  0  0  0  0
    3.2286    3.1385    0.5995 H   0  0  0  0  0  0  0  0  0  0  0  0
    1.4815    3.4462    0.6292 H   0  0  0  0  0  0  0  0  0  0  0  0
    2.3321    3.1804   -0.9071 H   0  0  0  0  0  0  0  0  0  0  0  0
    0.7158   -2.9897    1.4789 H   0  0  0  0  0  0  0  0  0  0  0  0
    1.0572   -3.2718   -0.2353 H   0  0  0  0  0  0  0  0  0  0  0  0
    2.3691   -3.2917    0.9408 H   0  0  0  0  0  0  0  0  0  0  0  0
   -1.4027   -3.1963    1.3703 H   0  0  0  0  0  0  0  0  0  0  0  0
   -4.1588   -3.2101   -0.5389 H   0  0  0  0  0  0  0  0  0  0  0  0
   -4.1436    2.4513   -1.4907 H   0  0  0  0  0  0  0  0  0  0  0  0
   -2.6655    3.0306   -0.6921 H   0  0  0  0  0  0  0  0  0  0  0  0
   -4.1365    2.8180    0.2364 H   0  0  0  0  0  0  0  0  0  0  0  0
  1  2  1  0  0  0  0
  2  3  1  0  0  0  0
  3  4  2  0  0  0  0
  4  5  1  0  0  0  0
  4  6  1  0  0  0  0
  6  7  2  0  0  0  0
  7  8  1  0  0  0  0
  8  9  1  0  0  0  0
  8 10  2  0  0  0  0
 10 11  1  0  0  0  0
  7 12  1  0  0  0  0
 12 13  1  0  0  0  0
 13 14  2  0  0  0  0
 14 15  1  0  0  0  0
 15 16  2  0  0  0  0
 14 17  1  0  0  0  0
 17 18  1  0  0  0  0
 17 19  2  0  0  0  0
 19 20  1  0  0  0  0
 19 21  1  0  0  0  0
 21 22  1  0  0  0  0
 21 23  2  0  0  0  0
 23 24  1  0  0  0  0
 24 25  2  0  0  0  0
 24 26  1  0  0  0  0
 10  3  1  0  0  0  0
 23 13  1  0  0  0  0
 26  6  1  0  0  0  0
  1 27  1  0  0  0  0
  1 28  1  0  0  0  0
  1 29  1  0  0  0  0
  5 30  1  0  0  0  0
  5 31  1  0  0  0  0
  5 32  1  0  0  0  0
  9 33  1  0  0  0  0
  9 34  1  0  0  0  0
  9 35  1  0  0  0  0
 15 36  1  0  0  0  0
 18 37  1  0  0  0  0
 22 38  1  0  0  0  0
 22 39  1  0  0  0  0
 22 40  1  0  0  0  0
M  END
