
  xtb     03212212003D
 energy: -59.383063884130 gnorm: 0.000352938413 xtb: 6.4.1 (afa7bdf)
 40 42  0     0  0            999 V2000
    0.6179    0.1986   -0.0405 C   0  0  0  0  0  0  0  0  0  0  0  0
    1.6609   -0.4048   -0.1471 C   0  0  0  0  0  0  0  0  0  0  0  0
    2.9215   -1.0180   -0.2955 C   0  0  0  0  0  0  0  0  0  0  0  0
    3.0129   -2.4002   -0.4739 C   0  0  0  0  0  0  0  0  0  0  0  0
    4.2493   -2.9963   -0.6245 C   0  0  0  0  0  0  0  0  0  0  0  0
    5.4030   -2.2282   -0.5988 C   0  0  0  0  0  0  0  0  0  0  0  0
    5.3181   -0.8562   -0.4193 C   0  0  0  0  0  0  0  0  0  0  0  0
    4.0874   -0.2488   -0.2676 C   0  0  0  0  0  0  0  0  0  0  0  0
   -0.6655    0.7588    0.1247 C   0  0  0  0  0  0  0  0  0  0  0  0
   -1.6890   -0.2083    0.2526 C   0  0  0  0  0  0  0  0  0  0  0  0
   -2.5418   -1.0581    0.3565 C   0  0  0  0  0  0  0  0  0  0  0  0
   -3.5439   -2.0422    0.4805 C   0  0  0  0  0  0  0  0  0  0  0  0
   -3.2068   -3.3959    0.4112 C   0  0  0  0  0  0  0  0  0  0  0  0
   -4.1881   -4.3592    0.5366 C   0  0  0  0  0  0  0  0  0  0  0  0
   -5.5098   -3.9890    0.7315 C   0  0  0  0  0  0  0  0  0  0  0  0
   -5.8501   -2.6469    0.7997 C   0  0  0  0  0  0  0  0  0  0  0  0
   -4.8772   -1.6748    0.6752 C   0  0  0  0  0  0  0  0  0  0  0  0
   -0.9716    2.0808    0.1892 C   0  0  0  0  0  0  0  0  0  0  0  0
   -0.0953    3.2211    0.0729 C   0  0  0  0  0  0  0  0  0  0  0  0
   -0.5992    4.4815    0.4197 C   0  0  0  0  0  0  0  0  0  0  0  0
    0.1880    5.6112    0.3350 C   0  0  0  0  0  0  0  0  0  0  0  0
    1.4973    5.5152   -0.1094 C   0  0  0  0  0  0  0  0  0  0  0  0
    2.0067    4.2784   -0.4716 C   0  0  0  0  0  0  0  0  0  0  0  0
    1.2248    3.1439   -0.3836 C   0  0  0  0  0  0  0  0  0  0  0  0
    2.1091   -2.9918   -0.4937 H   0  0  0  0  0  0  0  0  0  0  0  0
    4.3162   -4.0657   -0.7632 H   0  0  0  0  0  0  0  0  0  0  0  0
    6.3679   -2.6986   -0.7180 H   0  0  0  0  0  0  0  0  0  0  0  0
    6.2178   -0.2583   -0.3977 H   0  0  0  0  0  0  0  0  0  0  0  0
    4.0154    0.8198   -0.1241 H   0  0  0  0  0  0  0  0  0  0  0  0
   -2.1745   -3.6764    0.2594 H   0  0  0  0  0  0  0  0  0  0  0  0
   -3.9234   -5.4053    0.4828 H   0  0  0  0  0  0  0  0  0  0  0  0
   -6.2739   -4.7458    0.8304 H   0  0  0  0  0  0  0  0  0  0  0  0
   -6.8804   -2.3588    0.9509 H   0  0  0  0  0  0  0  0  0  0  0  0
   -5.1362   -0.6271    0.7273 H   0  0  0  0  0  0  0  0  0  0  0  0
   -2.0138    2.3187    0.3692 H   0  0  0  0  0  0  0  0  0  0  0  0
   -1.6198    4.5645    0.7672 H   0  0  0  0  0  0  0  0  0  0  0  0
   -0.2188    6.5727    0.6134 H   0  0  0  0  0  0  0  0  0  0  0  0
    2.1141    6.3991   -0.1784 H   0  0  0  0  0  0  0  0  0  0  0  0
    3.0230    4.1999   -0.8304 H   0  0  0  0  0  0  0  0  0  0  0  0
    1.6280    2.1902   -0.6836 H   0  0  0  0  0  0  0  0  0  0  0  0
  1  2  3  0  0  0  0
  2  3  1  0  0  0  0
  3  4  2  0  0  0  0
  4  5  1  0  0  0  0
  5  6  2  0  0  0  0
  6  7  1  0  0  0  0
  7  8  2  0  0  0  0
  1  9  1  0  0  0  0
  9 10  1  0  0  0  0
 10 11  3  0  0  0  0
 11 12  1  0  0  0  0
 12 13  2  0  0  0  0
 13 14  1  0  0  0  0
 14 15  2  0  0  0  0
 15 16  1  0  0  0  0
 16 17  2  0  0  0  0
  9 18  2  0  0  0  0
 18 19  1  0  0  0  0
 19 20  2  0  0  0  0
 20 21  1  0  0  0  0
 21 22  2  0  0  0  0
 22 23  1  0  0  0  0
 23 24  2  0  0  0  0
  8  3  1  0  0  0  0
 17 12  1  0  0  0  0
 24 19  1  0  0  0  0
  4 25  1  0  0  0  0
  5 26  1  0  0  0  0
  6 27  1  0  0  0  0
  7 28  1  0  0  0  0
  8 29  1  0  0  0  0
 13 30  1  0  0  0  0
 14 31  1  0  0  0  0
 15 32  1  0  0  0  0
 16 33  1  0  0  0  0
 17 34  1  0  0  0  0
 18 35  1  0  0  0  0
 20 36  1  0  0  0  0
 21 37  1  0  0  0  0
 22 38  1  0  0  0  0
 23 39  1  0  0  0  0
 24 40  1  0  0  0  0
M  END
