
  xtb     03212211383D
 energy: -79.027778185336 gnorm: 0.000179141964 xtb: 6.4.1 (afa7bdf)
 52 56  0     0  0            999 V2000
   -4.9081    3.5387    0.1797 C   0  0  0  0  0  0  0  0  0  0  0  0
   -3.5723    2.9023    0.1844 C   0  0  0  0  0  0  0  0  0  0  0  0
   -3.4061    1.5796    0.0679 N   0  0  0  0  0  4  0  0  0  0  0  0
   -2.0568    1.2969    0.1041 C   0  0  0  0  0  0  0  0  0  0  0  0
   -1.5732   -0.0098   -0.0305 C   0  0  0  0  0  0  0  0  0  0  0  0
   -0.1404   -0.2737    0.0292 C   0  0  0  0  0  0  0  0  0  0  0  0
    0.4926   -1.0542   -0.9398 C   0  0  0  0  0  0  0  0  0  0  0  0
    1.8461   -1.2929   -0.8916 C   0  0  0  0  0  0  0  0  0  0  0  0
    2.6439   -0.7755    0.1435 C   0  0  0  0  0  0  0  0  0  0  0  0
    3.9819   -1.0470    0.1931 N   0  0  0  0  0  0  0  0  0  0  0  0
    4.8019   -0.7741    1.3466 C   0  0  0  0  0  0  0  0  0  0  0  0
    5.5596    0.5544    1.1916 C   0  0  0  0  0  0  0  0  0  0  0  0
    5.8998    0.7692   -0.2886 C   0  0  0  0  0  0  0  0  0  0  0  0
    6.0906   -0.5805   -0.9752 C   0  0  0  0  0  0  0  0  0  0  0  0
    4.7488   -1.3286   -1.0037 C   0  0  0  0  0  0  0  0  0  0  0  0
    1.9973   -0.0053    1.1237 C   0  0  0  0  0  0  0  0  0  0  0  0
    0.6461    0.2445    1.0593 C   0  0  0  0  0  0  0  0  0  0  0  0
   -2.4789   -1.0596   -0.2219 C   0  0  0  0  0  0  0  0  0  0  0  0
   -2.2612   -2.4513   -0.3143 C   0  0  0  0  0  0  0  0  0  0  0  0
   -3.4972   -3.0425   -0.4602 C   0  0  0  0  0  0  0  0  0  0  0  0
   -4.4564   -2.0188   -0.4437 C   0  0  0  0  0  0  0  0  0  0  0  0
   -5.9274   -2.1361   -0.5526 C   0  0  0  0  0  0  0  0  0  0  0  0
   -3.8386   -0.8411   -0.2959 N   0  0  0  0  0  0  0  0  0  0  0  0
   -4.5182    0.5348   -0.1506 B   0  0  0  0  0  4  0  0  0  0  0  0
   -5.2333    0.8388   -1.2993 F   0  0  0  0  0  0  0  0  0  0  0  0
   -5.3829    0.5230    0.9335 F   0  0  0  0  0  0  0  0  0  0  0  0
   -1.3647    2.5202    0.2340 C   0  0  0  0  0  0  0  0  0  0  0  0
   -2.3154    3.5160    0.2909 C   0  0  0  0  0  0  0  0  0  0  0  0
   -4.8233    4.6095    0.3431 H   0  0  0  0  0  0  0  0  0  0  0  0
   -5.5320    3.0940    0.9535 H   0  0  0  0  0  0  0  0  0  0  0  0
   -5.4016    3.3512   -0.7734 H   0  0  0  0  0  0  0  0  0  0  0  0
   -0.0880   -1.4505   -1.7594 H   0  0  0  0  0  0  0  0  0  0  0  0
    2.2901   -1.9103   -1.6566 H   0  0  0  0  0  0  0  0  0  0  0  0
    4.1937   -0.7841    2.2503 H   0  0  0  0  0  0  0  0  0  0  0  0
    5.5203   -1.5971    1.4318 H   0  0  0  0  0  0  0  0  0  0  0  0
    4.9527    1.3852    1.5531 H   0  0  0  0  0  0  0  0  0  0  0  0
    6.4694    0.5182    1.7923 H   0  0  0  0  0  0  0  0  0  0  0  0
    6.7986    1.3784   -0.3860 H   0  0  0  0  0  0  0  0  0  0  0  0
    5.0825    1.2992   -0.7824 H   0  0  0  0  0  0  0  0  0  0  0  0
    6.4424   -0.4439   -1.9982 H   0  0  0  0  0  0  0  0  0  0  0  0
    6.8470   -1.1569   -0.4404 H   0  0  0  0  0  0  0  0  0  0  0  0
    4.1787   -0.9890   -1.8711 H   0  0  0  0  0  0  0  0  0  0  0  0
    4.9219   -2.4094   -1.1060 H   0  0  0  0  0  0  0  0  0  0  0  0
    2.5577    0.4214    1.9402 H   0  0  0  0  0  0  0  0  0  0  0  0
    0.1770    0.8279    1.8375 H   0  0  0  0  0  0  0  0  0  0  0  0
   -1.3083   -2.9396   -0.2582 H   0  0  0  0  0  0  0  0  0  0  0  0
   -3.7091   -4.0891   -0.5612 H   0  0  0  0  0  0  0  0  0  0  0  0
   -6.2887   -1.5114   -1.3682 H   0  0  0  0  0  0  0  0  0  0  0  0
   -6.2184   -3.1691   -0.7215 H   0  0  0  0  0  0  0  0  0  0  0  0
   -6.3944   -1.7680    0.3603 H   0  0  0  0  0  0  0  0  0  0  0  0
   -0.2990    2.6351    0.2604 H   0  0  0  0  0  0  0  0  0  0  0  0
   -2.1466    4.5706    0.3906 H   0  0  0  0  0  0  0  0  0  0  0  0
  1  2  1  0  0  0  0
  2  3  2  0  0  0  0
  3  4  1  0  0  0  0
  4  5  2  0  0  0  0
  5  6  1  0  0  0  0
  6  7  2  0  0  0  0
  7  8  1  0  0  0  0
  8  9  2  0  0  0  0
  9 10  1  0  0  0  0
 10 11  1  0  0  0  0
 11 12  1  0  0  0  0
 12 13  1  0  0  0  0
 13 14  1  0  0  0  0
 14 15  1  0  0  0  0
  9 16  1  0  0  0  0
 16 17  2  0  0  0  0
  5 18  1  0  0  0  0
 18 19  2  0  0  0  0
 19 20  1  0  0  0  0
 20 21  2  0  0  0  0
 21 22  1  0  0  0  0
 21 23  1  0  0  0  0
 23 24  1  0  0  0  0
 24 25  1  0  0  0  0
 24 26  1  0  0  0  0
  4 27  1  0  0  0  0
 27 28  2  0  0  0  0
 28  2  1  0  0  0  0
 24  3  1  0  0  0  0
 17  6  1  0  0  0  0
 23 18  1  0  0  0  0
 15 10  1  0  0  0  0
  1 29  1  0  0  0  0
  1 30  1  0  0  0  0
  1 31  1  0  0  0  0
  7 32  1  0  0  0  0
  8 33  1  0  0  0  0
 11 34  1  0  0  0  0
 11 35  1  0  0  0  0
 12 36  1  0  0  0  0
 12 37  1  0  0  0  0
 13 38  1  0  0  0  0
 13 39  1  0  0  0  0
 14 40  1  0  0  0  0
 14 41  1  0  0  0  0
 15 42  1  0  0  0  0
 15 43  1  0  0  0  0
 16 44  1  0  0  0  0
 17 45  1  0  0  0  0
 19 46  1  0  0  0  0
 20 47  1  0  0  0  0
 22 48  1  0  0  0  0
 22 49  1  0  0  0  0
 22 50  1  0  0  0  0
 27 51  1  0  0  0  0
 28 52  1  0  0  0  0
M  CHG  1   3   1
M  CHG  1  24  -1
M  END
