
  xtb     03212210513D
 energy: -74.361361153406 gnorm: 0.000142177220 xtb: 6.4.1 (afa7bdf)
 48 51  0     0  0            999 V2000
   -4.5222   -5.3176    0.5962 C   0  0  0  0  0  0  0  0  0  0  0  0
   -4.9342   -4.0583   -0.1697 C   0  0  0  0  0  0  0  0  0  0  0  0
   -4.5095   -2.8439    0.4891 N   0  0  0  0  0  0  0  0  0  0  0  0
   -5.4560   -2.2661    1.4165 C   0  0  0  0  0  0  0  0  0  0  0  0
   -6.3919   -1.2562    0.7487 C   0  0  0  0  0  0  0  0  0  0  0  0
   -3.2913   -2.2733    0.2450 C   0  0  0  0  0  0  0  0  0  0  0  0
   -2.9586   -0.9984    0.7363 C   0  0  0  0  0  0  0  0  0  0  0  0
   -1.7316   -0.4329    0.4899 C   0  0  0  0  0  0  0  0  0  0  0  0
   -0.7541   -1.0891   -0.2652 C   0  0  0  0  0  0  0  0  0  0  0  0
    0.5257   -0.4797   -0.5180 C   0  0  0  0  0  0  0  0  0  0  0  0
    1.5921   -0.9876   -1.2341 C   0  0  0  0  0  0  0  0  0  0  0  0
    2.6896   -0.1307   -1.2865 C   0  0  0  0  0  0  0  0  0  0  0  0
    2.4812    1.0494   -0.6101 C   0  0  0  0  0  0  0  0  0  0  0  0
    3.3778    2.1522   -0.4552 C   0  0  0  0  0  0  0  0  0  0  0  0
    2.9110    3.1987    0.2648 N   0  0  0  0  0  0  0  0  0  0  0  0
    3.7022    4.2270    0.4272 C   0  0  0  0  0  0  0  0  0  0  0  0
    3.2122    5.3287    1.1848 C   0  0  0  0  0  0  0  0  0  0  0  0
    2.8501    6.2324    1.7884 N   0  0  0  0  0  0  0  0  0  0  0  0
    5.0157    4.2801   -0.1195 C   0  0  0  0  0  0  0  0  0  0  0  0
    5.9064    5.3571    0.0228 C   0  0  0  0  0  0  0  0  0  0  0  0
    7.1467    5.2877   -0.5516 C   0  0  0  0  0  0  0  0  0  0  0  0
    7.5348    4.1497   -1.2805 C   0  0  0  0  0  0  0  0  0  0  0  0
    6.6891    3.0876   -1.4353 C   0  0  0  0  0  0  0  0  0  0  0  0
    5.4013    3.1237   -0.8570 C   0  0  0  0  0  0  0  0  0  0  0  0
    4.5737    2.0805   -1.0110 N   0  0  0  0  0  0  0  0  0  0  0  0
    0.9031    1.0999    0.1025 S   0  0  0  0  0  0  0  0  0  0  0  0
   -1.0819   -2.3566   -0.7586 C   0  0  0  0  0  0  0  0  0  0  0  0
   -2.3052   -2.9316   -0.5106 C   0  0  0  0  0  0  0  0  0  0  0  0
   -4.8631   -6.2044    0.0683 H   0  0  0  0  0  0  0  0  0  0  0  0
   -4.9607   -5.3165    1.5914 H   0  0  0  0  0  0  0  0  0  0  0  0
   -3.4417   -5.3650    0.7022 H   0  0  0  0  0  0  0  0  0  0  0  0
   -6.0241   -4.0312   -0.2572 H   0  0  0  0  0  0  0  0  0  0  0  0
   -4.5297   -4.0856   -1.1843 H   0  0  0  0  0  0  0  0  0  0  0  0
   -4.9181   -1.7926    2.2411 H   0  0  0  0  0  0  0  0  0  0  0  0
   -6.0496   -3.0800    1.8427 H   0  0  0  0  0  0  0  0  0  0  0  0
   -5.8244   -0.4373    0.3148 H   0  0  0  0  0  0  0  0  0  0  0  0
   -7.0886   -0.8529    1.4789 H   0  0  0  0  0  0  0  0  0  0  0  0
   -6.9605   -1.7336   -0.0460 H   0  0  0  0  0  0  0  0  0  0  0  0
   -3.6701   -0.4297    1.3118 H   0  0  0  0  0  0  0  0  0  0  0  0
   -1.5154    0.5500    0.8832 H   0  0  0  0  0  0  0  0  0  0  0  0
    1.5809   -1.9524   -1.7080 H   0  0  0  0  0  0  0  0  0  0  0  0
    3.6131   -0.3426   -1.7938 H   0  0  0  0  0  0  0  0  0  0  0  0
    5.5956    6.2259    0.5856 H   0  0  0  0  0  0  0  0  0  0  0  0
    7.8384    6.1101   -0.4480 H   0  0  0  0  0  0  0  0  0  0  0  0
    8.5202    4.1231   -1.7225 H   0  0  0  0  0  0  0  0  0  0  0  0
    6.9704    2.2074   -1.9911 H   0  0  0  0  0  0  0  0  0  0  0  0
   -0.3621   -2.9083   -1.3432 H   0  0  0  0  0  0  0  0  0  0  0  0
   -2.4868   -3.9172   -0.9065 H   0  0  0  0  0  0  0  0  0  0  0  0
  1  2  1  0  0  0  0
  2  3  1  0  0  0  0
  3  4  1  0  0  0  0
  4  5  1  0  0  0  0
  3  6  1  0  0  0  0
  6  7  2  0  0  0  0
  7  8  1  0  0  0  0
  8  9  2  0  0  0  0
  9 10  1  0  0  0  0
 10 11  2  0  0  0  0
 11 12  1  0  0  0  0
 12 13  2  0  0  0  0
 13 14  1  0  0  0  0
 14 15  2  0  0  0  0
 15 16  1  0  0  0  0
 16 17  1  0  0  0  0
 17 18  3  0  0  0  0
 16 19  2  0  0  0  0
 19 20  1  0  0  0  0
 20 21  2  0  0  0  0
 21 22  1  0  0  0  0
 22 23  2  0  0  0  0
 23 24  1  0  0  0  0
 24 25  2  0  0  0  0
 13 26  1  0  0  0  0
  9 27  1  0  0  0  0
 27 28  2  0  0  0  0
 28  6  1  0  0  0  0
 26 10  1  0  0  0  0
 25 14  1  0  0  0  0
 24 19  1  0  0  0  0
  1 29  1  0  0  0  0
  1 30  1  0  0  0  0
  1 31  1  0  0  0  0
  2 32  1  0  0  0  0
  2 33  1  0  0  0  0
  4 34  1  0  0  0  0
  4 35  1  0  0  0  0
  5 36  1  0  0  0  0
  5 37  1  0  0  0  0
  5 38  1  0  0  0  0
  7 39  1  0  0  0  0
  8 40  1  0  0  0  0
 11 41  1  0  0  0  0
 12 42  1  0  0  0  0
 20 43  1  0  0  0  0
 21 44  1  0  0  0  0
 22 45  1  0  0  0  0
 23 46  1  0  0  0  0
 27 47  1  0  0  0  0
 28 48  1  0  0  0  0
M  END
