
  xtb     03212211313D
 energy: -50.018059168640 gnorm: 0.000098328908 xtb: 6.4.1 (afa7bdf)
 30 31  0     0  0            999 V2000
    3.7972    0.6580    2.1321 O   0  0  0  0  0  0  0  0  0  0  0  0
    4.0165    0.1391    0.8904 C   0  0  0  0  0  0  0  0  0  0  0  0
    5.3005   -0.1190    0.4332 C   0  0  0  0  0  0  0  0  0  0  0  0
    5.5053   -0.6429   -0.8311 C   0  0  0  0  0  0  0  0  0  0  0  0
    4.4219   -0.9140   -1.6513 C   0  0  0  0  0  0  0  0  0  0  0  0
    3.1416   -0.6595   -1.2038 C   0  0  0  0  0  0  0  0  0  0  0  0
    2.9099   -0.1315    0.0668 C   0  0  0  0  0  0  0  0  0  0  0  0
    1.5734    0.1448    0.5440 C   0  0  0  0  0  0  0  0  0  0  0  0
    0.5619   -0.0229   -0.2127 N   0  0  0  0  0  0  0  0  0  0  0  0
   -0.6774   -0.0125    0.0255 N   0  0  0  0  0  0  0  0  0  0  0  0
   -1.5804    0.8553   -0.1916 C   0  0  0  0  0  0  0  0  0  0  0  0
   -2.9863    0.5642   -0.0275 C   0  0  0  0  0  0  0  0  0  0  0  0
   -3.9244    1.5711   -0.2597 C   0  0  0  0  0  0  0  0  0  0  0  0
   -5.2787    1.3484   -0.1121 C   0  0  0  0  0  0  0  0  0  0  0  0
   -5.7284    0.0974    0.2756 C   0  0  0  0  0  0  0  0  0  0  0  0
   -4.8192   -0.9179    0.5126 C   0  0  0  0  0  0  0  0  0  0  0  0
   -3.4546   -0.7037    0.3680 C   0  0  0  0  0  0  0  0  0  0  0  0
   -2.5596   -1.6929    0.6016 O   0  0  0  0  0  0  0  0  0  0  0  0
    4.6421    0.7857    2.5800 H   0  0  0  0  0  0  0  0  0  0  0  0
    6.1453    0.0937    1.0766 H   0  0  0  0  0  0  0  0  0  0  0  0
    6.5112   -0.8380   -1.1715 H   0  0  0  0  0  0  0  0  0  0  0  0
    4.5800   -1.3237   -2.6375 H   0  0  0  0  0  0  0  0  0  0  0  0
    2.2861   -0.8664   -1.8278 H   0  0  0  0  0  0  0  0  0  0  0  0
    1.4775    0.5111    1.5652 H   0  0  0  0  0  0  0  0  0  0  0  0
   -1.3313    1.8731   -0.5049 H   0  0  0  0  0  0  0  0  0  0  0  0
   -3.5700    2.5459   -0.5627 H   0  0  0  0  0  0  0  0  0  0  0  0
   -5.9825    2.1451   -0.2986 H   0  0  0  0  0  0  0  0  0  0  0  0
   -6.7847   -0.0910    0.3947 H   0  0  0  0  0  0  0  0  0  0  0  0
   -5.1685   -1.8970    0.8165 H   0  0  0  0  0  0  0  0  0  0  0  0
   -3.0245   -2.5001    0.8563 H   0  0  0  0  0  0  0  0  0  0  0  0
  1  2  1  0  0  0  0
  2  3  2  0  0  0  0
  3  4  1  0  0  0  0
  4  5  2  0  0  0  0
  5  6  1  0  0  0  0
  6  7  2  0  0  0  0
  7  8  1  0  0  0  0
  8  9  2  0  0  0  0
  9 10  1  0  0  0  0
 10 11  2  0  0  0  0
 11 12  1  0  0  0  0
 12 13  2  0  0  0  0
 13 14  1  0  0  0  0
 14 15  2  0  0  0  0
 15 16  1  0  0  0  0
 16 17  2  0  0  0  0
 17 18  1  0  0  0  0
  7  2  1  0  0  0  0
 17 12  1  0  0  0  0
  1 19  1  0  0  0  0
  3 20  1  0  0  0  0
  4 21  1  0  0  0  0
  5 22  1  0  0  0  0
  6 23  1  0  0  0  0
  8 24  1  0  0  0  0
 11 25  1  0  0  0  0
 13 26  1  0  0  0  0
 14 27  1  0  0  0  0
 15 28  1  0  0  0  0
 16 29  1  0  0  0  0
 18 30  1  0  0  0  0
M  END
