
  xtb     03212211033D
 energy: -49.598767224014 gnorm: 0.000174151269 xtb: 6.4.1 (afa7bdf)
 30 31  0     0  0            999 V2000
    5.6176    1.0733    0.2116 C   0  0  0  0  0  0  0  0  0  0  0  0
    4.4748    1.8093   -0.1550 O   0  0  0  0  0  0  0  0  0  0  0  0
    3.2577    1.2165   -0.0667 C   0  0  0  0  0  0  0  0  0  0  0  0
    2.1668    2.0091   -0.4422 C   0  0  0  0  0  0  0  0  0  0  0  0
    0.8884    1.5092   -0.3916 C   0  0  0  0  0  0  0  0  0  0  0  0
    0.6626    0.1976    0.0366 C   0  0  0  0  0  0  0  0  0  0  0  0
   -0.6848   -0.3182    0.0843 C   0  0  0  0  0  0  0  0  0  0  0  0
   -1.7700    0.3203   -0.2271 N   0  0  0  0  0  0  0  0  0  0  0  0
   -2.7957   -0.5703   -0.0278 C   0  0  0  0  0  0  0  0  0  0  0  0
   -4.2005   -0.2350   -0.2684 C   0  0  0  0  0  0  0  0  0  0  0  0
   -4.4243    1.1731   -0.7406 C   0  0  0  0  0  0  0  0  0  0  0  0
   -5.0949   -1.0368   -0.0955 O   0  0  0  0  0  0  0  0  0  0  0  0
   -2.2564   -1.7585    0.4143 C   0  0  0  0  0  0  0  0  0  0  0  0
   -2.8728   -3.0502    0.7827 C   0  0  0  0  0  0  0  0  0  0  0  0
   -0.9196   -1.5971    0.4855 O   0  0  0  0  0  0  0  0  0  0  0  0
    1.7476   -0.5905    0.4099 C   0  0  0  0  0  0  0  0  0  0  0  0
    3.0345   -0.0900    0.3605 C   0  0  0  0  0  0  0  0  0  0  0  0
    6.4605    1.7465    0.0642 H   0  0  0  0  0  0  0  0  0  0  0  0
    5.5788    0.7677    1.2619 H   0  0  0  0  0  0  0  0  0  0  0  0
    5.7465    0.1894   -0.4211 H   0  0  0  0  0  0  0  0  0  0  0  0
    2.3607    3.0178   -0.7703 H   0  0  0  0  0  0  0  0  0  0  0  0
    0.0424    2.1123   -0.6786 H   0  0  0  0  0  0  0  0  0  0  0  0
   -3.8518    1.3408   -1.6495 H   0  0  0  0  0  0  0  0  0  0  0  0
   -5.4815    1.3480   -0.9188 H   0  0  0  0  0  0  0  0  0  0  0  0
   -4.0485    1.8634    0.0111 H   0  0  0  0  0  0  0  0  0  0  0  0
   -2.4735   -3.8496    0.1592 H   0  0  0  0  0  0  0  0  0  0  0  0
   -2.6510   -3.2915    1.8220 H   0  0  0  0  0  0  0  0  0  0  0  0
   -3.9474   -2.9776    0.6444 H   0  0  0  0  0  0  0  0  0  0  0  0
    1.5798   -1.6040    0.7416 H   0  0  0  0  0  0  0  0  0  0  0  0
    3.8543   -0.7254    0.6564 H   0  0  0  0  0  0  0  0  0  0  0  0
  1  2  1  0  0  0  0
  2  3  1  0  0  0  0
  3  4  2  0  0  0  0
  4  5  1  0  0  0  0
  5  6  2  0  0  0  0
  6  7  1  0  0  0  0
  7  8  2  0  0  0  0
  8  9  1  0  0  0  0
  9 10  1  0  0  0  0
 10 11  1  0  0  0  0
 10 12  2  0  0  0  0
  9 13  2  0  0  0  0
 13 14  1  0  0  0  0
 13 15  1  0  0  0  0
  6 16  1  0  0  0  0
 16 17  2  0  0  0  0
 17  3  1  0  0  0  0
 15  7  1  0  0  0  0
  1 18  1  0  0  0  0
  1 19  1  0  0  0  0
  1 20  1  0  0  0  0
  4 21  1  0  0  0  0
  5 22  1  0  0  0  0
 11 23  1  0  0  0  0
 11 24  1  0  0  0  0
 11 25  1  0  0  0  0
 14 26  1  0  0  0  0
 14 27  1  0  0  0  0
 14 28  1  0  0  0  0
 16 29  1  0  0  0  0
 17 30  1  0  0  0  0
M  END
