
  xtb     03212210533D
 energy: -73.506245083729 gnorm: 0.000328703877 xtb: 6.4.1 (afa7bdf)
 43 44  0     0  0            999 V2000
    4.4774    0.5611   -3.1309 C   0  0  0  0  0  0  0  0  0  0  0  0
    3.8276   -0.7606   -3.5127 C   0  0  0  0  0  0  0  0  0  0  0  0
    3.5789   -1.5668   -2.3573 O   0  0  0  0  0  0  0  0  0  0  0  0
    2.4931   -1.2862   -1.6406 C   0  0  0  0  0  0  0  0  0  0  0  0
    1.6734   -0.4546   -1.9261 O   0  0  0  0  0  0  0  0  0  0  0  0
    2.4587   -2.1265   -0.3834 C   0  0  0  0  0  0  0  0  0  0  0  0
    3.2923   -1.1306    0.8999 S   0  0  0  0  0  0  0  0  0  0  0  0
    1.9720   -0.0495    1.3266 C   0  0  0  0  0  0  0  0  0  0  0  0
    0.7527   -0.4257    1.0200 N   0  0  0  0  0  0  0  0  0  0  0  0
   -0.2944    0.3463    1.2911 C   0  0  0  0  0  0  0  0  0  0  0  0
   -1.5789   -0.2025    0.8430 C   0  0  0  0  0  0  0  0  0  0  0  0
   -1.8342   -1.5635    1.0244 C   0  0  0  0  0  0  0  0  0  0  0  0
   -3.0163   -2.1199    0.5983 C   0  0  0  0  0  0  0  0  0  0  0  0
   -3.9766   -1.3359   -0.0488 C   0  0  0  0  0  0  0  0  0  0  0  0
   -5.1074   -1.9802   -0.4291 O   0  0  0  0  0  0  0  0  0  0  0  0
   -6.1114   -1.2534   -1.0972 C   0  0  0  0  0  0  0  0  0  0  0  0
   -3.7145    0.0145   -0.2606 C   0  0  0  0  0  0  0  0  0  0  0  0
   -2.5293    0.5702    0.1857 C   0  0  0  0  0  0  0  0  0  0  0  0
   -0.1607    1.5644    1.9809 C   0  0  0  0  0  0  0  0  0  0  0  0
   -1.3248    2.4087    2.3904 C   0  0  0  0  0  0  0  0  0  0  0  0
    1.1366    1.9552    2.3273 C   0  0  0  0  0  0  0  0  0  0  0  0
    1.3578    3.1670    3.0279 C   0  0  0  0  0  0  0  0  0  0  0  0
    1.5251    4.1490    3.5934 N   0  0  0  0  0  0  0  0  0  0  0  0
    2.2437    1.1591    1.9879 C   0  0  0  0  0  0  0  0  0  0  0  0
    3.5600    1.5579    2.2912 C   0  0  0  0  0  0  0  0  0  0  0  0
    4.6353    1.8818    2.5221 N   0  0  0  0  0  0  0  0  0  0  0  0
    3.7913    1.1552   -2.5319 H   0  0  0  0  0  0  0  0  0  0  0  0
    5.3825    0.3826   -2.5554 H   0  0  0  0  0  0  0  0  0  0  0  0
    4.7298    1.1165   -4.0294 H   0  0  0  0  0  0  0  0  0  0  0  0
    4.4905   -1.3626   -4.1366 H   0  0  0  0  0  0  0  0  0  0  0  0
    2.8796   -0.5853   -4.0319 H   0  0  0  0  0  0  0  0  0  0  0  0
    3.0370   -3.0395   -0.4959 H   0  0  0  0  0  0  0  0  0  0  0  0
    1.4375   -2.3023   -0.0519 H   0  0  0  0  0  0  0  0  0  0  0  0
   -1.0947   -2.1731    1.5204 H   0  0  0  0  0  0  0  0  0  0  0  0
   -3.2275   -3.1669    0.7469 H   0  0  0  0  0  0  0  0  0  0  0  0
   -6.9087   -1.9677   -1.2956 H   0  0  0  0  0  0  0  0  0  0  0  0
   -5.7477   -0.8453   -2.0454 H   0  0  0  0  0  0  0  0  0  0  0  0
   -6.5008   -0.4411   -0.4754 H   0  0  0  0  0  0  0  0  0  0  0  0
   -4.4219    0.6431   -0.7780 H   0  0  0  0  0  0  0  0  0  0  0  0
   -2.3318    1.6105   -0.0210 H   0  0  0  0  0  0  0  0  0  0  0  0
   -2.2267    1.8074    2.4759 H   0  0  0  0  0  0  0  0  0  0  0  0
   -1.5020    3.1965    1.6573 H   0  0  0  0  0  0  0  0  0  0  0  0
   -1.1224    2.8929    3.3447 H   0  0  0  0  0  0  0  0  0  0  0  0
  1  2  1  0  0  0  0
  2  3  1  0  0  0  0
  3  4  1  0  0  0  0
  4  5  2  0  0  0  0
  4  6  1  0  0  0  0
  6  7  1  0  0  0  0
  7  8  1  0  0  0  0
  8  9  2  0  0  0  0
  9 10  1  0  0  0  0
 10 11  1  0  0  0  0
 11 12  2  0  0  0  0
 12 13  1  0  0  0  0
 13 14  2  0  0  0  0
 14 15  1  0  0  0  0
 15 16  1  0  0  0  0
 14 17  1  0  0  0  0
 17 18  2  0  0  0  0
 10 19  2  0  0  0  0
 19 20  1  0  0  0  0
 19 21  1  0  0  0  0
 21 22  1  0  0  0  0
 22 23  3  0  0  0  0
 21 24  2  0  0  0  0
 24 25  1  0  0  0  0
 25 26  3  0  0  0  0
 24  8  1  0  0  0  0
 18 11  1  0  0  0  0
  1 27  1  0  0  0  0
  1 28  1  0  0  0  0
  1 29  1  0  0  0  0
  2 30  1  0  0  0  0
  2 31  1  0  0  0  0
  6 32  1  0  0  0  0
  6 33  1  0  0  0  0
 12 34  1  0  0  0  0
 13 35  1  0  0  0  0
 16 36  1  0  0  0  0
 16 37  1  0  0  0  0
 16 38  1  0  0  0  0
 17 39  1  0  0  0  0
 18 40  1  0  0  0  0
 20 41  1  0  0  0  0
 20 42  1  0  0  0  0
 20 43  1  0  0  0  0
M  END
