
  xtb     03212210343D
 energy: -87.028159451054 gnorm: 0.000324172832 xtb: 6.4.1 (afa7bdf)
 57 61  0     0  0            999 V2000
   -6.6121   -1.3761    1.1377 C   0  0  0  0  0  0  0  0  0  0  0  0
   -6.2668    0.1021    0.9957 C   0  0  0  0  0  0  0  0  0  0  0  0
   -4.7658    0.3561    0.8556 C   0  0  0  0  0  0  0  0  0  0  0  0
   -4.2066   -0.1820   -0.4706 C   0  0  0  0  0  0  0  0  0  0  0  0
   -2.8426    0.2174   -0.7546 N   0  0  0  0  0  0  0  0  0  0  0  0
   -2.6262    1.4378   -1.4011 C   0  0  0  0  0  0  0  0  0  0  0  0
   -3.6329    2.4030   -1.4849 C   0  0  0  0  0  0  0  0  0  0  0  0
   -3.4350    3.6097   -2.1341 C   0  0  0  0  0  0  0  0  0  0  0  0
   -2.2159    3.9082   -2.7100 C   0  0  0  0  0  0  0  0  0  0  0  0
   -1.2017    2.9711   -2.6388 C   0  0  0  0  0  0  0  0  0  0  0  0
   -1.4073    1.7547   -2.0105 C   0  0  0  0  0  0  0  0  0  0  0  0
   -0.0716    0.5978   -2.0842 S   0  0  0  0  0  0  0  0  0  0  0  0
   -0.4830   -0.4251   -0.7027 C   0  0  0  0  0  0  0  0  0  0  0  0
    0.5514   -1.1539   -0.1551 C   0  0  0  0  0  0  0  0  0  0  0  0
    0.3285   -2.0748    0.8677 C   0  0  0  0  0  0  0  0  0  0  0  0
    1.4099   -2.8463    1.4615 C   0  0  0  0  0  0  0  0  0  0  0  0
    2.6583   -2.4151    1.6631 C   0  0  0  0  0  0  0  0  0  0  0  0
    3.1233   -1.0420    1.4686 C   0  0  0  0  0  0  0  0  0  0  0  0
    2.4556    0.0096    2.0061 C   0  0  0  0  0  0  0  0  0  0  0  0
    2.9116    1.3760    1.8795 C   0  0  0  0  0  0  0  0  0  0  0  0
    2.3470    2.3435    2.3295 O   0  0  0  0  0  0  0  0  0  0  0  0
    4.0854    1.5751    1.1983 O   0  0  0  0  0  0  0  0  0  0  0  0
    4.7759    0.5515    0.6501 C   0  0  0  0  0  0  0  0  0  0  0  0
    5.9481    0.8694   -0.0337 C   0  0  0  0  0  0  0  0  0  0  0  0
    6.7024   -0.1198   -0.6339 C   0  0  0  0  0  0  0  0  0  0  0  0
    7.9607    0.2070   -1.3743 C   0  0  0  0  0  0  0  0  0  0  0  0
    6.2658   -1.4463   -0.5517 C   0  0  0  0  0  0  0  0  0  0  0  0
    5.1136   -1.7709    0.1216 C   0  0  0  0  0  0  0  0  0  0  0  0
    4.3481   -0.7809    0.7494 C   0  0  0  0  0  0  0  0  0  0  0  0
   -0.9861   -2.2570    1.2830 C   0  0  0  0  0  0  0  0  0  0  0  0
   -2.0157   -1.4987    0.7606 C   0  0  0  0  0  0  0  0  0  0  0  0
   -1.8012   -0.5432   -0.2381 C   0  0  0  0  0  0  0  0  0  0  0  0
   -7.6772   -1.4969    1.3204 H   0  0  0  0  0  0  0  0  0  0  0  0
   -6.3612   -1.9279    0.2354 H   0  0  0  0  0  0  0  0  0  0  0  0
   -6.0722   -1.8147    1.9743 H   0  0  0  0  0  0  0  0  0  0  0  0
   -6.7892    0.5147    0.1292 H   0  0  0  0  0  0  0  0  0  0  0  0
   -6.6251    0.6339    1.8798 H   0  0  0  0  0  0  0  0  0  0  0  0
   -4.5763    1.4289    0.9162 H   0  0  0  0  0  0  0  0  0  0  0  0
   -4.2445   -0.1010    1.6978 H   0  0  0  0  0  0  0  0  0  0  0  0
   -4.2401   -1.2739   -0.4798 H   0  0  0  0  0  0  0  0  0  0  0  0
   -4.8333    0.1637   -1.2977 H   0  0  0  0  0  0  0  0  0  0  0  0
   -4.5990    2.2284   -1.0445 H   0  0  0  0  0  0  0  0  0  0  0  0
   -4.2477    4.3191   -2.1789 H   0  0  0  0  0  0  0  0  0  0  0  0
   -2.0535    4.8495   -3.2104 H   0  0  0  0  0  0  0  0  0  0  0  0
   -0.2390    3.1612   -3.0880 H   0  0  0  0  0  0  0  0  0  0  0  0
    1.5397   -1.0311   -0.5710 H   0  0  0  0  0  0  0  0  0  0  0  0
    1.1555   -3.8597    1.7471 H   0  0  0  0  0  0  0  0  0  0  0  0
    3.4022   -3.1019    2.0463 H   0  0  0  0  0  0  0  0  0  0  0  0
    1.5412   -0.1284    2.5608 H   0  0  0  0  0  0  0  0  0  0  0  0
    6.2440    1.9057   -0.0829 H   0  0  0  0  0  0  0  0  0  0  0  0
    8.7911   -0.3815   -0.9874 H   0  0  0  0  0  0  0  0  0  0  0  0
    7.8471   -0.0349   -2.4304 H   0  0  0  0  0  0  0  0  0  0  0  0
    8.2048    1.2615   -1.2836 H   0  0  0  0  0  0  0  0  0  0  0  0
    6.8465   -2.2218   -1.0290 H   0  0  0  0  0  0  0  0  0  0  0  0
    4.7825   -2.7972    0.1663 H   0  0  0  0  0  0  0  0  0  0  0  0
   -1.2077   -2.9816    2.0530 H   0  0  0  0  0  0  0  0  0  0  0  0
   -3.0040   -1.6725    1.1484 H   0  0  0  0  0  0  0  0  0  0  0  0
  1  2  1  0  0  0  0
  2  3  1  0  0  0  0
  3  4  1  0  0  0  0
  4  5  1  0  0  0  0
  5  6  1  0  0  0  0
  6  7  2  0  0  0  0
  7  8  1  0  0  0  0
  8  9  2  0  0  0  0
  9 10  1  0  0  0  0
 10 11  2  0  0  0  0
 11 12  1  0  0  0  0
 12 13  1  0  0  0  0
 13 14  2  0  0  0  0
 14 15  1  0  0  0  0
 15 16  1  0  0  0  0
 16 17  2  0  0  0  0
 17 18  1  0  0  0  0
 18 19  2  0  0  0  0
 19 20  1  0  0  0  0
 20 21  2  0  0  0  0
 20 22  1  0  0  0  0
 22 23  1  0  0  0  0
 23 24  2  0  0  0  0
 24 25  1  0  0  0  0
 25 26  1  0  0  0  0
 25 27  2  0  0  0  0
 27 28  1  0  0  0  0
 28 29  2  0  0  0  0
 15 30  2  0  0  0  0
 30 31  1  0  0  0  0
 31 32  2  0  0  0  0
 32  5  1  0  0  0  0
 11  6  1  0  0  0  0
 32 13  1  0  0  0  0
 29 18  1  0  0  0  0
 29 23  1  0  0  0  0
  1 33  1  0  0  0  0
  1 34  1  0  0  0  0
  1 35  1  0  0  0  0
  2 36  1  0  0  0  0
  2 37  1  0  0  0  0
  3 38  1  0  0  0  0
  3 39  1  0  0  0  0
  4 40  1  0  0  0  0
  4 41  1  0  0  0  0
  7 42  1  0  0  0  0
  8 43  1  0  0  0  0
  9 44  1  0  0  0  0
 10 45  1  0  0  0  0
 14 46  1  0  0  0  0
 16 47  1  0  0  0  0
 17 48  1  0  0  0  0
 19 49  1  0  0  0  0
 24 50  1  0  0  0  0
 26 51  1  0  0  0  0
 26 52  1  0  0  0  0
 26 53  1  0  0  0  0
 27 54  1  0  0  0  0
 28 55  1  0  0  0  0
 30 56  1  0  0  0  0
 31 57  1  0  0  0  0
M  END
