
  xtb     03212211363D
 energy: -100.965031198424 gnorm: 0.000181002948 xtb: 6.4.1 (afa7bdf)
 64 67  0     0  0            999 V2000
    5.5571   -5.0994   -2.4014 C   0  0  0  0  0  0  0  0  0  0  0  0
    4.3543   -4.6880   -3.2395 C   0  0  0  0  0  0  0  0  0  0  0  0
    3.8024   -3.4525   -2.7918 O   0  0  0  0  0  0  0  0  0  0  0  0
    2.9569   -3.5087   -1.7460 C   0  0  0  0  0  0  0  0  0  0  0  0
    2.6387   -4.5356   -1.1942 O   0  0  0  0  0  0  0  0  0  0  0  0
    2.4850   -2.1675   -1.3877 C   0  0  0  0  0  0  0  0  0  0  0  0
    1.6159   -2.0024   -0.3772 C   0  0  0  0  0  0  0  0  0  0  0  0
    1.0709   -0.7652    0.1173 C   0  0  0  0  0  0  0  0  0  0  0  0
    1.3034    0.4321   -0.4660 C   0  0  0  0  0  0  0  0  0  0  0  0
    0.6811    1.6536   -0.0488 C   0  0  0  0  0  0  0  0  0  0  0  0
    1.1399    2.9503   -0.2351 C   0  0  0  0  0  0  0  0  0  0  0  0
    2.4121    3.4541   -0.7051 C   0  0  0  0  0  0  0  0  0  0  0  0
    2.4957    4.7462   -1.2312 C   0  0  0  0  0  0  0  0  0  0  0  0
    3.6991    5.2349   -1.6975 C   0  0  0  0  0  0  0  0  0  0  0  0
    4.8385    4.4473   -1.6469 C   0  0  0  0  0  0  0  0  0  0  0  0
    4.7694    3.1716   -1.1104 C   0  0  0  0  0  0  0  0  0  0  0  0
    3.5703    2.6764   -0.6357 C   0  0  0  0  0  0  0  0  0  0  0  0
    0.1872    3.8322    0.1342 O   0  0  0  0  0  0  0  0  0  0  0  0
   -0.8967    3.1451    0.5533 C   0  0  0  0  0  0  0  0  0  0  0  0
   -2.0448    3.8844    1.0313 C   0  0  0  0  0  0  0  0  0  0  0  0
   -2.2320    5.2105    0.6317 C   0  0  0  0  0  0  0  0  0  0  0  0
   -3.3245    5.9273    1.0759 C   0  0  0  0  0  0  0  0  0  0  0  0
   -4.2474    5.3372    1.9252 C   0  0  0  0  0  0  0  0  0  0  0  0
   -4.0625    4.0278    2.3387 C   0  0  0  0  0  0  0  0  0  0  0  0
   -2.9688    3.3046    1.9036 C   0  0  0  0  0  0  0  0  0  0  0  0
   -0.6537    1.7812    0.4667 C   0  0  0  0  0  0  0  0  0  0  0  0
   -1.5817    0.7028    0.6382 C   0  0  0  0  0  0  0  0  0  0  0  0
   -1.2170   -0.5558    0.9772 C   0  0  0  0  0  0  0  0  0  0  0  0
   -2.2030   -1.6027    0.9754 C   0  0  0  0  0  0  0  0  0  0  0  0
   -1.9982   -2.9134    1.1814 C   0  0  0  0  0  0  0  0  0  0  0  0
   -3.0738   -3.9106    1.1644 C   0  0  0  0  0  0  0  0  0  0  0  0
   -2.9047   -5.0829    1.4071 O   0  0  0  0  0  0  0  0  0  0  0  0
   -4.2736   -3.3874    0.8461 O   0  0  0  0  0  0  0  0  0  0  0  0
   -5.3767   -4.2893    0.8256 C   0  0  0  0  0  0  0  0  0  0  0  0
   -5.9338   -4.5270    2.2225 C   0  0  0  0  0  0  0  0  0  0  0  0
    0.2162   -0.8205    1.3588 C   0  0  0  0  0  0  0  0  0  0  0  0
    5.9918   -6.0079   -2.8082 H   0  0  0  0  0  0  0  0  0  0  0  0
    5.2459   -5.2853   -1.3764 H   0  0  0  0  0  0  0  0  0  0  0  0
    6.3067   -4.3115   -2.4067 H   0  0  0  0  0  0  0  0  0  0  0  0
    4.6398   -4.5124   -4.2791 H   0  0  0  0  0  0  0  0  0  0  0  0
    3.5799   -5.4610   -3.1898 H   0  0  0  0  0  0  0  0  0  0  0  0
    2.8881   -1.3584   -1.9753 H   0  0  0  0  0  0  0  0  0  0  0  0
    1.3015   -2.9059    0.1320 H   0  0  0  0  0  0  0  0  0  0  0  0
    1.9589    0.5019   -1.3220 H   0  0  0  0  0  0  0  0  0  0  0  0
    1.6048    5.3541   -1.2761 H   0  0  0  0  0  0  0  0  0  0  0  0
    3.7508    6.2336   -2.1056 H   0  0  0  0  0  0  0  0  0  0  0  0
    5.7785    4.8297   -2.0157 H   0  0  0  0  0  0  0  0  0  0  0  0
    5.6589    2.5616   -1.0536 H   0  0  0  0  0  0  0  0  0  0  0  0
    3.5312    1.6976   -0.1832 H   0  0  0  0  0  0  0  0  0  0  0  0
   -1.5147    5.6649   -0.0348 H   0  0  0  0  0  0  0  0  0  0  0  0
   -3.4601    6.9506    0.7581 H   0  0  0  0  0  0  0  0  0  0  0  0
   -5.1025    5.8988    2.2704 H   0  0  0  0  0  0  0  0  0  0  0  0
   -4.7710    3.5705    3.0136 H   0  0  0  0  0  0  0  0  0  0  0  0
   -2.8093    2.2987    2.2598 H   0  0  0  0  0  0  0  0  0  0  0  0
   -2.6201    0.9240    0.4285 H   0  0  0  0  0  0  0  0  0  0  0  0
   -3.2168   -1.2818    0.7707 H   0  0  0  0  0  0  0  0  0  0  0  0
   -1.0255   -3.3376    1.3779 H   0  0  0  0  0  0  0  0  0  0  0  0
   -5.0524   -5.2380    0.3846 H   0  0  0  0  0  0  0  0  0  0  0  0
   -6.1193   -3.8137    0.1809 H   0  0  0  0  0  0  0  0  0  0  0  0
   -6.2086   -3.5815    2.6846 H   0  0  0  0  0  0  0  0  0  0  0  0
   -5.1853   -5.0182    2.8392 H   0  0  0  0  0  0  0  0  0  0  0  0
   -6.8125   -5.1627    2.1614 H   0  0  0  0  0  0  0  0  0  0  0  0
    0.3173   -1.7823    1.8550 H   0  0  0  0  0  0  0  0  0  0  0  0
    0.5425   -0.0386    2.0507 H   0  0  0  0  0  0  0  0  0  0  0  0
  1  2  1  0  0  0  0
  2  3  1  0  0  0  0
  3  4  1  0  0  0  0
  4  5  2  0  0  0  0
  4  6  1  0  0  0  0
  6  7  2  0  0  0  0
  7  8  1  0  0  0  0
  8  9  2  0  0  0  0
  9 10  1  0  0  0  0
 10 11  2  0  0  0  0
 11 12  1  0  0  0  0
 12 13  2  0  0  0  0
 13 14  1  0  0  0  0
 14 15  2  0  0  0  0
 15 16  1  0  0  0  0
 16 17  2  0  0  0  0
 11 18  1  0  0  0  0
 18 19  1  0  0  0  0
 19 20  1  0  0  0  0
 20 21  2  0  0  0  0
 21 22  1  0  0  0  0
 22 23  2  0  0  0  0
 23 24  1  0  0  0  0
 24 25  2  0  0  0  0
 19 26  2  0  0  0  0
 26 27  1  0  0  0  0
 27 28  2  0  0  0  0
 28 29  1  0  0  0  0
 29 30  2  0  0  0  0
 30 31  1  0  0  0  0
 31 32  2  0  0  0  0
 31 33  1  0  0  0  0
 33 34  1  0  0  0  0
 34 35  1  0  0  0  0
 28 36  1  0  0  0  0
 36  8  1  0  0  0  0
 26 10  1  0  0  0  0
 17 12  1  0  0  0  0
 25 20  1  0  0  0  0
  1 37  1  0  0  0  0
  1 38  1  0  0  0  0
  1 39  1  0  0  0  0
  2 40  1  0  0  0  0
  2 41  1  0  0  0  0
  6 42  1  0  0  0  0
  7 43  1  0  0  0  0
  9 44  1  0  0  0  0
 13 45  1  0  0  0  0
 14 46  1  0  0  0  0
 15 47  1  0  0  0  0
 16 48  1  0  0  0  0
 17 49  1  0  0  0  0
 21 50  1  0  0  0  0
 22 51  1  0  0  0  0
 23 52  1  0  0  0  0
 24 53  1  0  0  0  0
 25 54  1  0  0  0  0
 27 55  1  0  0  0  0
 29 56  1  0  0  0  0
 30 57  1  0  0  0  0
 34 58  1  0  0  0  0
 34 59  1  0  0  0  0
 35 60  1  0  0  0  0
 35 61  1  0  0  0  0
 35 62  1  0  0  0  0
 36 63  1  0  0  0  0
 36 64  1  0  0  0  0
M  END
