
  xtb     03212211433D
 energy: -155.939436238580 gnorm: 0.000236841626 xtb: 6.4.1 (afa7bdf)
 84 90  0     0  0            999 V2000
   -7.5900    5.6377    1.0362 F   0  0  0  0  0  0  0  0  0  0  0  0
   -6.5222    4.8258    0.9000 C   0  0  0  0  0  0  0  0  0  0  0  0
   -6.7311    3.4740    0.6844 C   0  0  0  0  0  0  0  0  0  0  0  0
   -5.6362    2.6454    0.5453 C   0  0  0  0  0  0  0  0  0  0  0  0
   -4.3429    3.1684    0.6218 C   0  0  0  0  0  0  0  0  0  0  0  0
   -3.2246    2.3243    0.4766 C   0  0  0  0  0  0  0  0  0  0  0  0
   -2.2626    1.6040    0.3515 C   0  0  0  0  0  0  0  0  0  0  0  0
   -1.1322    0.7861    0.1840 C   0  0  0  0  0  0  0  0  0  0  0  0
    0.0656    1.3452   -0.2945 C   0  0  0  0  0  0  0  0  0  0  0  0
    0.1285    2.7168   -0.5940 C   0  0  0  0  0  0  0  0  0  0  0  0
    0.1828    3.8960   -0.8517 C   0  0  0  0  0  0  0  0  0  0  0  0
    0.2408    5.2710   -1.1507 C   0  0  0  0  0  0  0  0  0  0  0  0
    1.4749    5.9233   -1.2166 C   0  0  0  0  0  0  0  0  0  0  0  0
    1.5336    7.2708   -1.5095 C   0  0  0  0  0  0  0  0  0  0  0  0
    0.3523    7.9573   -1.7352 C   0  0  0  0  0  0  0  0  0  0  0  0
    0.4070    9.2738   -2.0219 F   0  0  0  0  0  0  0  0  0  0  0  0
   -0.8834    7.3349   -1.6760 C   0  0  0  0  0  0  0  0  0  0  0  0
   -0.9365    5.9874   -1.3826 C   0  0  0  0  0  0  0  0  0  0  0  0
    1.1999    0.5340   -0.4733 C   0  0  0  0  0  0  0  0  0  0  0  0
    2.3936    1.1057   -0.9458 C   0  0  0  0  0  0  0  0  0  0  0  0
    3.4098    1.6238   -1.3444 C   0  0  0  0  0  0  0  0  0  0  0  0
    4.5901    2.2336   -1.8126 C   0  0  0  0  0  0  0  0  0  0  0  0
    4.5149    3.3956   -2.5855 C   0  0  0  0  0  0  0  0  0  0  0  0
    5.6670    3.9999   -3.0462 C   0  0  0  0  0  0  0  0  0  0  0  0
    6.8907    3.4348   -2.7284 C   0  0  0  0  0  0  0  0  0  0  0  0
    8.0178    4.0231   -3.1772 F   0  0  0  0  0  0  0  0  0  0  0  0
    6.9934    2.2854   -1.9629 C   0  0  0  0  0  0  0  0  0  0  0  0
    5.8378    1.6854   -1.5052 C   0  0  0  0  0  0  0  0  0  0  0  0
    1.1328   -0.8402   -0.1852 C   0  0  0  0  0  0  0  0  0  0  0  0
    2.2488   -1.6642   -0.4074 C   0  0  0  0  0  0  0  0  0  0  0  0
    3.1921   -2.3872   -0.6253 C   0  0  0  0  0  0  0  0  0  0  0  0
    4.2937   -3.2276   -0.8753 C   0  0  0  0  0  0  0  0  0  0  0  0
    4.1997   -4.5995   -0.6256 C   0  0  0  0  0  0  0  0  0  0  0  0
    5.2791   -5.4252   -0.8656 C   0  0  0  0  0  0  0  0  0  0  0  0
    6.4486   -4.8698   -1.3571 C   0  0  0  0  0  0  0  0  0  0  0  0
    7.5057   -5.6739   -1.5901 F   0  0  0  0  0  0  0  0  0  0  0  0
    6.5660   -3.5153   -1.6203 C   0  0  0  0  0  0  0  0  0  0  0  0
    5.4834   -2.6945   -1.3786 C   0  0  0  0  0  0  0  0  0  0  0  0
   -0.0621   -1.3969    0.3042 C   0  0  0  0  0  0  0  0  0  0  0  0
   -0.1262   -2.7691    0.6029 C   0  0  0  0  0  0  0  0  0  0  0  0
   -0.1794   -3.9491    0.8569 C   0  0  0  0  0  0  0  0  0  0  0  0
   -0.2409   -5.3249    1.1550 C   0  0  0  0  0  0  0  0  0  0  0  0
   -1.4277   -6.0345    0.9560 C   0  0  0  0  0  0  0  0  0  0  0  0
   -1.4897   -7.3823    1.2473 C   0  0  0  0  0  0  0  0  0  0  0  0
   -0.3584   -8.0122    1.7378 C   0  0  0  0  0  0  0  0  0  0  0  0
   -0.4161   -9.3287    2.0233 F   0  0  0  0  0  0  0  0  0  0  0  0
    0.8303   -7.3328    1.9442 C   0  0  0  0  0  0  0  0  0  0  0  0
    0.8861   -5.9852    1.6509 C   0  0  0  0  0  0  0  0  0  0  0  0
   -1.1926   -0.5833    0.4956 C   0  0  0  0  0  0  0  0  0  0  0  0
   -2.3723   -1.1354    1.0221 C   0  0  0  0  0  0  0  0  0  0  0  0
   -3.3724   -1.6085    1.5080 C   0  0  0  0  0  0  0  0  0  0  0  0
   -4.5381   -2.1622    2.0708 C   0  0  0  0  0  0  0  0  0  0  0  0
   -5.6495   -1.3532    2.3222 C   0  0  0  0  0  0  0  0  0  0  0  0
   -6.7944   -1.8953    2.8697 C   0  0  0  0  0  0  0  0  0  0  0  0
   -6.8177   -3.2482    3.1641 C   0  0  0  0  0  0  0  0  0  0  0  0
   -7.9362   -3.7811    3.6964 F   0  0  0  0  0  0  0  0  0  0  0  0
   -5.7279   -4.0706    2.9326 C   0  0  0  0  0  0  0  0  0  0  0  0
   -4.5856   -3.5231    2.3851 C   0  0  0  0  0  0  0  0  0  0  0  0
   -4.1602    4.5369    0.8389 C   0  0  0  0  0  0  0  0  0  0  0  0
   -5.2514    5.3702    0.9790 C   0  0  0  0  0  0  0  0  0  0  0  0
   -7.7377    3.0907    0.6272 H   0  0  0  0  0  0  0  0  0  0  0  0
   -5.7710    1.5889    0.3664 H   0  0  0  0  0  0  0  0  0  0  0  0
    2.3804    5.3653   -1.0295 H   0  0  0  0  0  0  0  0  0  0  0  0
    2.4753    7.7939   -1.5640 H   0  0  0  0  0  0  0  0  0  0  0  0
   -1.7797    7.9061   -1.8597 H   0  0  0  0  0  0  0  0  0  0  0  0
   -1.8863    5.4753   -1.3369 H   0  0  0  0  0  0  0  0  0  0  0  0
    3.5471    3.8113   -2.8242 H   0  0  0  0  0  0  0  0  0  0  0  0
    5.6309    4.8960   -3.6455 H   0  0  0  0  0  0  0  0  0  0  0  0
    7.9664    1.8792   -1.7357 H   0  0  0  0  0  0  0  0  0  0  0  0
    5.8901    0.7941   -0.8978 H   0  0  0  0  0  0  0  0  0  0  0  0
    3.2730   -5.0073   -0.2504 H   0  0  0  0  0  0  0  0  0  0  0  0
    5.2276   -6.4865   -0.6804 H   0  0  0  0  0  0  0  0  0  0  0  0
    7.4932   -3.1242   -2.0088 H   0  0  0  0  0  0  0  0  0  0  0  0
    5.5442   -1.6361   -1.5831 H   0  0  0  0  0  0  0  0  0  0  0  0
   -2.2930   -5.5214    0.5631 H   0  0  0  0  0  0  0  0  0  0  0  0
   -2.3958   -7.9485    1.0993 H   0  0  0  0  0  0  0  0  0  0  0  0
    1.6886   -7.8604    2.3294 H   0  0  0  0  0  0  0  0  0  0  0  0
    1.7980   -5.4293    1.8118 H   0  0  0  0  0  0  0  0  0  0  0  0
   -5.6006   -0.2996    2.0911 H   0  0  0  0  0  0  0  0  0  0  0  0
   -7.6630   -1.2888    3.0723 H   0  0  0  0  0  0  0  0  0  0  0  0
   -5.7856   -5.1183    3.1827 H   0  0  0  0  0  0  0  0  0  0  0  0
   -3.7180   -4.1393    2.2020 H   0  0  0  0  0  0  0  0  0  0  0  0
   -3.1580    4.9339    0.9030 H   0  0  0  0  0  0  0  0  0  0  0  0
   -5.1323    6.4288    1.1485 H   0  0  0  0  0  0  0  0  0  0  0  0
  1  2  1  0  0  0  0
  2  3  2  0  0  0  0
  3  4  1  0  0  0  0
  4  5  2  0  0  0  0
  5  6  1  0  0  0  0
  6  7  3  0  0  0  0
  7  8  1  0  0  0  0
  8  9  2  0  0  0  0
  9 10  1  0  0  0  0
 10 11  3  0  0  0  0
 11 12  1  0  0  0  0
 12 13  2  0  0  0  0
 13 14  1  0  0  0  0
 14 15  2  0  0  0  0
 15 16  1  0  0  0  0
 15 17  1  0  0  0  0
 17 18  2  0  0  0  0
  9 19  1  0  0  0  0
 19 20  1  0  0  0  0
 20 21  3  0  0  0  0
 21 22  1  0  0  0  0
 22 23  2  0  0  0  0
 23 24  1  0  0  0  0
 24 25  2  0  0  0  0
 25 26  1  0  0  0  0
 25 27  1  0  0  0  0
 27 28  2  0  0  0  0
 19 29  2  0  0  0  0
 29 30  1  0  0  0  0
 30 31  3  0  0  0  0
 31 32  1  0  0  0  0
 32 33  2  0  0  0  0
 33 34  1  0  0  0  0
 34 35  2  0  0  0  0
 35 36  1  0  0  0  0
 35 37  1  0  0  0  0
 37 38  2  0  0  0  0
 29 39  1  0  0  0  0
 39 40  1  0  0  0  0
 40 41  3  0  0  0  0
 41 42  1  0  0  0  0
 42 43  2  0  0  0  0
 43 44  1  0  0  0  0
 44 45  2  0  0  0  0
 45 46  1  0  0  0  0
 45 47  1  0  0  0  0
 47 48  2  0  0  0  0
 39 49  2  0  0  0  0
 49 50  1  0  0  0  0
 50 51  3  0  0  0  0
 51 52  1  0  0  0  0
 52 53  2  0  0  0  0
 53 54  1  0  0  0  0
 54 55  2  0  0  0  0
 55 56  1  0  0  0  0
 55 57  1  0  0  0  0
 57 58  2  0  0  0  0
  5 59  1  0  0  0  0
 59 60  2  0  0  0  0
 60  2  1  0  0  0  0
 49  8  1  0  0  0  0
 58 52  1  0  0  0  0
 18 12  1  0  0  0  0
 28 22  1  0  0  0  0
 38 32  1  0  0  0  0
 48 42  1  0  0  0  0
  3 61  1  0  0  0  0
  4 62  1  0  0  0  0
 13 63  1  0  0  0  0
 14 64  1  0  0  0  0
 17 65  1  0  0  0  0
 18 66  1  0  0  0  0
 23 67  1  0  0  0  0
 24 68  1  0  0  0  0
 27 69  1  0  0  0  0
 28 70  1  0  0  0  0
 33 71  1  0  0  0  0
 34 72  1  0  0  0  0
 37 73  1  0  0  0  0
 38 74  1  0  0  0  0
 43 75  1  0  0  0  0
 44 76  1  0  0  0  0
 47 77  1  0  0  0  0
 48 78  1  0  0  0  0
 53 79  1  0  0  0  0
 54 80  1  0  0  0  0
 57 81  1  0  0  0  0
 58 82  1  0  0  0  0
 59 83  1  0  0  0  0
 60 84  1  0  0  0  0
M  END
