
  xtb     03212211143D
 energy: -103.168096403629 gnorm: 0.000226611548 xtb: 6.4.1 (afa7bdf)
 56 59  0     0  0            999 V2000
   -2.4788    2.1427   -3.8129 C   0  0  0  0  0  0  0  0  0  0  0  0
   -1.8720    0.7479   -3.7543 C   0  0  0  0  0  0  0  0  0  0  0  0
   -1.6941    0.3279   -2.4010 O   0  0  0  0  0  0  0  0  0  0  0  0
   -0.6169    0.7885   -1.7546 C   0  0  0  0  0  0  0  0  0  0  0  0
    0.2633    1.4277   -2.2775 O   0  0  0  0  0  0  0  0  0  0  0  0
   -0.6782    0.3940   -0.3403 C   0  0  0  0  0  0  0  0  0  0  0  0
    0.3451    0.0360    0.5874 C   0  0  0  0  0  0  0  0  0  0  0  0
    1.7849   -0.0427    0.4093 C   0  0  0  0  0  0  0  0  0  0  0  0
    2.4854    0.8032   -0.3893 C   0  0  0  0  0  0  0  0  0  0  0  0
    3.8995    0.6856   -0.5046 C   0  0  0  0  0  0  0  0  0  0  0  0
    4.6900    1.5215   -1.3079 C   0  0  0  0  0  0  0  0  0  0  0  0
    6.0485    1.3640   -1.3544 C   0  0  0  0  0  0  0  0  0  0  0  0
    6.6805    0.3623   -0.5943 C   0  0  0  0  0  0  0  0  0  0  0  0
    8.0243    0.3012   -0.7128 O   0  0  0  0  0  0  0  0  0  0  0  0
    8.7275   -0.6767    0.0202 C   0  0  0  0  0  0  0  0  0  0  0  0
    5.9181   -0.4773    0.2043 C   0  0  0  0  0  0  0  0  0  0  0  0
    4.5363   -0.3154    0.2434 C   0  0  0  0  0  0  0  0  0  0  0  0
    3.8344   -1.1632    1.0262 O   0  0  0  0  0  0  0  0  0  0  0  0
    2.4708   -1.1076    1.1530 C   0  0  0  0  0  0  0  0  0  0  0  0
    1.9464   -1.9460    1.8391 O   0  0  0  0  0  0  0  0  0  0  0  0
   -0.2025   -0.3147    1.7354 N   0  0  0  0  0  0  0  0  0  0  0  0
   -1.5170   -0.2062    1.6067 N   0  0  0  0  0  0  0  0  0  0  0  0
   -2.3420   -0.5097    2.6966 C   0  0  0  0  0  0  0  0  0  0  0  0
   -1.8893   -1.4482    3.6190 C   0  0  0  0  0  0  0  0  0  0  0  0
   -2.6859   -1.7752    4.6997 C   0  0  0  0  0  0  0  0  0  0  0  0
   -3.9275   -1.1837    4.8679 C   0  0  0  0  0  0  0  0  0  0  0  0
   -4.3546   -0.2368    3.9501 C   0  0  0  0  0  0  0  0  0  0  0  0
   -5.8904    0.5252    4.1554 Cl  0  0  0  0  0  0  0  0  0  0  0  0
   -3.5680    0.1207    2.8677 C   0  0  0  0  0  0  0  0  0  0  0  0
   -1.8627    0.2120    0.3645 C   0  0  0  0  0  0  0  0  0  0  0  0
   -3.2517    0.3743   -0.1311 C   0  0  0  0  0  0  0  0  0  0  0  0
   -3.7001    1.3950   -0.5830 O   0  0  0  0  0  0  0  0  0  0  0  0
   -3.9247   -0.7687    0.0011 O   0  0  0  0  0  0  0  0  0  0  0  0
   -5.2754   -0.7822   -0.4677 C   0  0  0  0  0  0  0  0  0  0  0  0
   -5.3325   -1.0119   -1.9702 C   0  0  0  0  0  0  0  0  0  0  0  0
   -3.3601    2.1899   -3.1773 H   0  0  0  0  0  0  0  0  0  0  0  0
   -1.7586    2.8758   -3.4585 H   0  0  0  0  0  0  0  0  0  0  0  0
   -2.7552    2.3821   -4.8357 H   0  0  0  0  0  0  0  0  0  0  0  0
   -2.5406    0.0037   -4.1925 H   0  0  0  0  0  0  0  0  0  0  0  0
   -0.9039    0.7257   -4.2656 H   0  0  0  0  0  0  0  0  0  0  0  0
    1.9802    1.5764   -0.9476 H   0  0  0  0  0  0  0  0  0  0  0  0
    4.2044    2.2888   -1.8906 H   0  0  0  0  0  0  0  0  0  0  0  0
    6.6683    1.9979   -1.9677 H   0  0  0  0  0  0  0  0  0  0  0  0
    9.7770   -0.5335   -0.2308 H   0  0  0  0  0  0  0  0  0  0  0  0
    8.5900   -0.5436    1.0972 H   0  0  0  0  0  0  0  0  0  0  0  0
    8.4202   -1.6869   -0.2652 H   0  0  0  0  0  0  0  0  0  0  0  0
    6.3502   -1.2618    0.8026 H   0  0  0  0  0  0  0  0  0  0  0  0
   -0.9197   -1.8956    3.4672 H   0  0  0  0  0  0  0  0  0  0  0  0
   -2.3422   -2.5037    5.4173 H   0  0  0  0  0  0  0  0  0  0  0  0
   -4.5563   -1.4446    5.7041 H   0  0  0  0  0  0  0  0  0  0  0  0
   -3.9019    0.8893    2.1888 H   0  0  0  0  0  0  0  0  0  0  0  0
   -5.7498    0.1707   -0.2101 H   0  0  0  0  0  0  0  0  0  0  0  0
   -5.7538   -1.5965    0.0797 H   0  0  0  0  0  0  0  0  0  0  0  0
   -6.3684   -1.0637   -2.2928 H   0  0  0  0  0  0  0  0  0  0  0  0
   -4.8404   -0.1922   -2.4874 H   0  0  0  0  0  0  0  0  0  0  0  0
   -4.8305   -1.9415   -2.2261 H   0  0  0  0  0  0  0  0  0  0  0  0
  1  2  1  0  0  0  0
  2  3  1  0  0  0  0
  3  4  1  0  0  0  0
  4  5  2  0  0  0  0
  4  6  1  0  0  0  0
  6  7  1  0  0  0  0
  7  8  1  0  0  0  0
  8  9  2  0  0  0  0
  9 10  1  0  0  0  0
 10 11  2  0  0  0  0
 11 12  1  0  0  0  0
 12 13  2  0  0  0  0
 13 14  1  0  0  0  0
 14 15  1  0  0  0  0
 13 16  1  0  0  0  0
 16 17  2  0  0  0  0
 17 18  1  0  0  0  0
 18 19  1  0  0  0  0
 19 20  2  0  0  0  0
  7 21  2  0  0  0  0
 21 22  1  0  0  0  0
 22 23  1  0  0  0  0
 23 24  2  0  0  0  0
 24 25  1  0  0  0  0
 25 26  2  0  0  0  0
 26 27  1  0  0  0  0
 27 28  1  0  0  0  0
 27 29  2  0  0  0  0
 22 30  1  0  0  0  0
 30 31  1  0  0  0  0
 31 32  2  0  0  0  0
 31 33  1  0  0  0  0
 33 34  1  0  0  0  0
 34 35  1  0  0  0  0
 30  6  2  0  0  0  0
 19  8  1  0  0  0  0
 29 23  1  0  0  0  0
 17 10  1  0  0  0  0
  1 36  1  0  0  0  0
  1 37  1  0  0  0  0
  1 38  1  0  0  0  0
  2 39  1  0  0  0  0
  2 40  1  0  0  0  0
  9 41  1  0  0  0  0
 11 42  1  0  0  0  0
 12 43  1  0  0  0  0
 15 44  1  0  0  0  0
 15 45  1  0  0  0  0
 15 46  1  0  0  0  0
 16 47  1  0  0  0  0
 24 48  1  0  0  0  0
 25 49  1  0  0  0  0
 26 50  1  0  0  0  0
 29 51  1  0  0  0  0
 34 52  1  0  0  0  0
 34 53  1  0  0  0  0
 35 54  1  0  0  0  0
 35 55  1  0  0  0  0
 35 56  1  0  0  0  0
M  END
