
  xtb     03212211523D
 energy: -116.527843088491 gnorm: 0.000135071508 xtb: 6.4.1 (afa7bdf)
 72 78  0     0  0            999 V2000
  -10.5142   -0.5565    2.0753 C   0  0  0  0  0  0  0  0  0  0  0  0
  -10.1701   -0.3660    0.5986 C   0  0  0  0  0  0  0  0  0  0  0  0
   -8.8993    0.2872    0.4307 N   0  0  0  0  0  0  0  0  0  0  0  0
   -8.6978    1.6492    0.4101 C   0  0  0  0  0  0  0  0  0  0  0  0
   -9.6216    2.6830    0.4726 C   0  0  0  0  0  0  0  0  0  0  0  0
   -9.1456    3.9790    0.4175 C   0  0  0  0  0  0  0  0  0  0  0  0
   -7.7839    4.2506    0.3051 C   0  0  0  0  0  0  0  0  0  0  0  0
   -6.8585    3.2278    0.2460 C   0  0  0  0  0  0  0  0  0  0  0  0
   -7.3131    1.9172    0.2995 C   0  0  0  0  0  0  0  0  0  0  0  0
   -6.6566    0.6402    0.2711 C   0  0  0  0  0  0  0  0  0  0  0  0
   -5.3309    0.2559    0.1804 C   0  0  0  0  0  0  0  0  0  0  0  0
   -5.0306   -1.1055    0.1834 C   0  0  0  0  0  0  0  0  0  0  0  0
   -3.6976   -1.5418    0.0879 C   0  0  0  0  0  0  0  0  0  0  0  0
   -2.5551   -1.9306    0.0036 C   0  0  0  0  0  0  0  0  0  0  0  0
   -1.2332   -2.3960   -0.1022 C   0  0  0  0  0  0  0  0  0  0  0  0
   -0.1484   -1.5141   -0.1204 C   0  0  0  0  0  0  0  0  0  0  0  0
    1.1252   -2.0730   -0.2386 C   0  0  0  0  0  0  0  0  0  0  0  0
    2.2764   -1.2646   -0.2676 C   0  0  0  0  0  0  0  0  0  0  0  0
    3.2668   -0.5704   -0.2917 C   0  0  0  0  0  0  0  0  0  0  0  0
    4.4106    0.2476   -0.3187 C   0  0  0  0  0  0  0  0  0  0  0  0
    4.2885    1.6185   -0.0282 C   0  0  0  0  0  0  0  0  0  0  0  0
    5.3820    2.4545   -0.0394 C   0  0  0  0  0  0  0  0  0  0  0  0
    6.6231    1.9102   -0.3552 C   0  0  0  0  0  0  0  0  0  0  0  0
    6.7582    0.5281   -0.6501 C   0  0  0  0  0  0  0  0  0  0  0  0
    5.6532   -0.3031   -0.6298 C   0  0  0  0  0  0  0  0  0  0  0  0
    8.1517    0.3085   -0.9190 C   0  0  0  0  0  0  0  0  0  0  0  0
    8.8943   -0.8142   -1.2591 C   0  0  0  0  0  0  0  0  0  0  0  0
   10.2548   -0.6732   -1.4457 C   0  0  0  0  0  0  0  0  0  0  0  0
   10.8743    0.5656   -1.2954 C   0  0  0  0  0  0  0  0  0  0  0  0
   10.1559    1.6965   -0.9576 C   0  0  0  0  0  0  0  0  0  0  0  0
    8.7869    1.5638   -0.7725 C   0  0  0  0  0  0  0  0  0  0  0  0
    7.8464    2.5173   -0.4503 N   0  0  0  0  0  0  0  0  0  0  0  0
    8.1251    3.8983   -0.1593 C   0  0  0  0  0  0  0  0  0  0  0  0
    8.4664    4.1053    1.3159 C   0  0  0  0  0  0  0  0  0  0  0  0
    1.2900   -3.4064   -0.3291 N   0  0  0  0  0  0  0  0  0  0  0  0
    0.1947   -4.1271   -0.2945 C   0  0  0  0  0  0  0  0  0  0  0  0
    0.4551   -5.9235   -0.4047 S   0  0  0  0  0  6  0  0  0  0  0  0
    2.2571   -6.0761   -0.5645 C   0  0  0  0  0  0  0  0  0  0  0  0
    0.0508   -6.5220    0.8387 O   0  0  0  0  0  0  0  0  0  0  0  0
   -0.1572   -6.4082   -1.6118 O   0  0  0  0  0  0  0  0  0  0  0  0
   -1.0435   -3.7246   -0.1885 N   0  0  0  0  0  0  0  0  0  0  0  0
   -6.0553   -2.0652    0.2804 C   0  0  0  0  0  0  0  0  0  0  0  0
   -7.3770   -1.6944    0.3744 C   0  0  0  0  0  0  0  0  0  0  0  0
   -7.6820   -0.3365    0.3661 C   0  0  0  0  0  0  0  0  0  0  0  0
  -11.4780   -1.0483    2.1756 H   0  0  0  0  0  0  0  0  0  0  0  0
   -9.7570   -1.1662    2.5629 H   0  0  0  0  0  0  0  0  0  0  0  0
  -10.5574    0.4064    2.5791 H   0  0  0  0  0  0  0  0  0  0  0  0
  -10.9376    0.2398    0.1093 H   0  0  0  0  0  0  0  0  0  0  0  0
  -10.1317   -1.3350    0.0940 H   0  0  0  0  0  0  0  0  0  0  0  0
  -10.6802    2.4915    0.5638 H   0  0  0  0  0  0  0  0  0  0  0  0
   -9.8452    4.8005    0.4644 H   0  0  0  0  0  0  0  0  0  0  0  0
   -7.4527    5.2775    0.2656 H   0  0  0  0  0  0  0  0  0  0  0  0
   -5.8030    3.4380    0.1605 H   0  0  0  0  0  0  0  0  0  0  0  0
   -4.5415    0.9886    0.1072 H   0  0  0  0  0  0  0  0  0  0  0  0
   -0.2891   -0.4474   -0.0486 H   0  0  0  0  0  0  0  0  0  0  0  0
    3.3117    2.0112    0.2126 H   0  0  0  0  0  0  0  0  0  0  0  0
    5.2686    3.5024    0.1941 H   0  0  0  0  0  0  0  0  0  0  0  0
    5.7406   -1.3559   -0.8502 H   0  0  0  0  0  0  0  0  0  0  0  0
    8.4140   -1.7740   -1.3737 H   0  0  0  0  0  0  0  0  0  0  0  0
   10.8523   -1.5325   -1.7105 H   0  0  0  0  0  0  0  0  0  0  0  0
   11.9411    0.6434   -1.4448 H   0  0  0  0  0  0  0  0  0  0  0  0
   10.6535    2.6475   -0.8415 H   0  0  0  0  0  0  0  0  0  0  0  0
    8.9601    4.2221   -0.7866 H   0  0  0  0  0  0  0  0  0  0  0  0
    7.2490    4.4938   -0.4294 H   0  0  0  0  0  0  0  0  0  0  0  0
    9.3402    3.5169    1.5860 H   0  0  0  0  0  0  0  0  0  0  0  0
    7.6343    3.7928    1.9427 H   0  0  0  0  0  0  0  0  0  0  0  0
    8.6764    5.1538    1.5090 H   0  0  0  0  0  0  0  0  0  0  0  0
    2.5575   -5.5497   -1.4598 H   0  0  0  0  0  0  0  0  0  0  0  0
    2.4817   -7.1327   -0.6381 H   0  0  0  0  0  0  0  0  0  0  0  0
    2.7076   -5.6409    0.3166 H   0  0  0  0  0  0  0  0  0  0  0  0
   -5.7825   -3.1096    0.2826 H   0  0  0  0  0  0  0  0  0  0  0  0
   -8.1486   -2.4451    0.4539 H   0  0  0  0  0  0  0  0  0  0  0  0
  1  2  1  0  0  0  0
  2  3  1  0  0  0  0
  3  4  1  0  0  0  0
  4  5  2  0  0  0  0
  5  6  1  0  0  0  0
  6  7  2  0  0  0  0
  7  8  1  0  0  0  0
  8  9  2  0  0  0  0
  9 10  1  0  0  0  0
 10 11  2  0  0  0  0
 11 12  1  0  0  0  0
 12 13  1  0  0  0  0
 13 14  3  0  0  0  0
 14 15  1  0  0  0  0
 15 16  2  0  0  0  0
 16 17  1  0  0  0  0
 17 18  1  0  0  0  0
 18 19  3  0  0  0  0
 19 20  1  0  0  0  0
 20 21  2  0  0  0  0
 21 22  1  0  0  0  0
 22 23  2  0  0  0  0
 23 24  1  0  0  0  0
 24 25  2  0  0  0  0
 24 26  1  0  0  0  0
 26 27  2  0  0  0  0
 27 28  1  0  0  0  0
 28 29  2  0  0  0  0
 29 30  1  0  0  0  0
 30 31  2  0  0  0  0
 31 32  1  0  0  0  0
 32 33  1  0  0  0  0
 33 34  1  0  0  0  0
 17 35  2  0  0  0  0
 35 36  1  0  0  0  0
 36 37  1  0  0  0  0
 37 38  1  0  0  0  0
 37 39  2  0  0  0  0
 37 40  2  0  0  0  0
 36 41  2  0  0  0  0
 12 42  2  0  0  0  0
 42 43  1  0  0  0  0
 43 44  2  0  0  0  0
 44  3  1  0  0  0  0
  9  4  1  0  0  0  0
 44 10  1  0  0  0  0
 41 15  1  0  0  0  0
 25 20  1  0  0  0  0
 31 26  1  0  0  0  0
 32 23  1  0  0  0  0
  1 45  1  0  0  0  0
  1 46  1  0  0  0  0
  1 47  1  0  0  0  0
  2 48  1  0  0  0  0
  2 49  1  0  0  0  0
  5 50  1  0  0  0  0
  6 51  1  0  0  0  0
  7 52  1  0  0  0  0
  8 53  1  0  0  0  0
 11 54  1  0  0  0  0
 16 55  1  0  0  0  0
 21 56  1  0  0  0  0
 22 57  1  0  0  0  0
 25 58  1  0  0  0  0
 27 59  1  0  0  0  0
 28 60  1  0  0  0  0
 29 61  1  0  0  0  0
 30 62  1  0  0  0  0
 33 63  1  0  0  0  0
 33 64  1  0  0  0  0
 34 65  1  0  0  0  0
 34 66  1  0  0  0  0
 34 67  1  0  0  0  0
 38 68  1  0  0  0  0
 38 69  1  0  0  0  0
 38 70  1  0  0  0  0
 42 71  1  0  0  0  0
 43 72  1  0  0  0  0
M  END
