
  xtb     03212211273D
 energy: -81.411351611716 gnorm: 0.000064386601 xtb: 6.4.1 (afa7bdf)
 46 48  0     0  0            999 V2000
   -6.1391   -1.5210   -1.0145 C   0  0  0  0  0  0  0  0  0  0  0  0
   -5.5926   -0.1119   -1.2479 C   0  0  0  0  0  0  0  0  0  0  0  0
   -4.6244    0.2772   -0.2444 N   0  0  0  0  0  0  0  0  0  0  0  0
   -5.1664    0.9573    0.9134 C   0  0  0  0  0  0  0  0  0  0  0  0
   -5.1626    2.4776    0.7493 C   0  0  0  0  0  0  0  0  0  0  0  0
   -3.3022   -0.0026   -0.3669 C   0  0  0  0  0  0  0  0  0  0  0  0
   -2.3525    0.5106    0.5461 C   0  0  0  0  0  0  0  0  0  0  0  0
   -1.0207    0.2229    0.4311 C   0  0  0  0  0  0  0  0  0  0  0  0
   -0.5502   -0.6075   -0.6011 C   0  0  0  0  0  0  0  0  0  0  0  0
    0.7473   -0.9831   -0.7641 N   0  0  0  0  0  0  0  0  0  0  0  0
    1.6224   -0.5848    0.0106 N   0  0  0  0  0  0  0  0  0  0  0  0
    2.9311   -0.5604    0.0637 C   0  0  0  0  0  0  0  0  0  0  0  0
    3.7109    0.1807   -0.8596 C   0  0  0  0  0  0  0  0  0  0  0  0
    5.0619    0.3389   -0.6794 C   0  0  0  0  0  0  0  0  0  0  0  0
    5.8212    1.0911   -1.7013 C   0  0  0  0  0  0  0  0  0  0  0  0
    5.3441    1.6035   -2.6950 O   0  0  0  0  0  0  0  0  0  0  0  0
    7.1539    1.1820   -1.4523 N   0  0  0  0  0  0  0  0  0  0  0  0
    7.7918    0.6442   -0.3413 N   0  0  0  0  0  0  0  0  0  0  0  0
    7.1633   -0.0619    0.6477 C   0  0  0  0  0  0  0  0  0  0  0  0
    7.8062   -0.4978    1.5814 O   0  0  0  0  0  0  0  0  0  0  0  0
    5.7190   -0.2126    0.4509 C   0  0  0  0  0  0  0  0  0  0  0  0
    4.9711   -0.9065    1.3862 C   0  0  0  0  0  0  0  0  0  0  0  0
    3.6080   -1.0807    1.2099 C   0  0  0  0  0  0  0  0  0  0  0  0
    2.8280   -1.7457    2.1713 N   0  0  0  0  0  4  0  0  0  0  0  0
    3.3600   -2.1569    3.1884 O   0  0  0  0  0  0  0  0  0  0  0  0
    1.6228   -1.8456    1.9400 O   0  0  0  0  0  1  0  0  0  0  0  0
   -1.4810   -1.1190   -1.5177 C   0  0  0  0  0  0  0  0  0  0  0  0
   -2.8128   -0.8217   -1.4087 C   0  0  0  0  0  0  0  0  0  0  0  0
   -6.8636   -1.7709   -1.7847 H   0  0  0  0  0  0  0  0  0  0  0  0
   -5.3367   -2.2535   -1.0364 H   0  0  0  0  0  0  0  0  0  0  0  0
   -6.6288   -1.5835   -0.0456 H   0  0  0  0  0  0  0  0  0  0  0  0
   -6.4162    0.6060   -1.2128 H   0  0  0  0  0  0  0  0  0  0  0  0
   -5.1427   -0.0392   -2.2403 H   0  0  0  0  0  0  0  0  0  0  0  0
   -6.1940    0.6119    1.0534 H   0  0  0  0  0  0  0  0  0  0  0  0
   -4.6052    0.6706    1.8051 H   0  0  0  0  0  0  0  0  0  0  0  0
   -4.1510    2.8468    0.6031 H   0  0  0  0  0  0  0  0  0  0  0  0
   -5.7584    2.7688   -0.1126 H   0  0  0  0  0  0  0  0  0  0  0  0
   -5.5826    2.9475    1.6344 H   0  0  0  0  0  0  0  0  0  0  0  0
   -2.6651    1.1512    1.3538 H   0  0  0  0  0  0  0  0  0  0  0  0
   -0.3122    0.6126    1.1464 H   0  0  0  0  0  0  0  0  0  0  0  0
    3.2384    0.6152   -1.7270 H   0  0  0  0  0  0  0  0  0  0  0  0
    7.7296    1.6937   -2.1071 H   0  0  0  0  0  0  0  0  0  0  0  0
    8.7902    0.7819   -0.2727 H   0  0  0  0  0  0  0  0  0  0  0  0
    5.4540   -1.3199    2.2596 H   0  0  0  0  0  0  0  0  0  0  0  0
   -1.1248   -1.7571   -2.3113 H   0  0  0  0  0  0  0  0  0  0  0  0
   -3.4892   -1.2485   -2.1299 H   0  0  0  0  0  0  0  0  0  0  0  0
  1  2  1  0  0  0  0
  2  3  1  0  0  0  0
  3  4  1  0  0  0  0
  4  5  1  0  0  0  0
  3  6  1  0  0  0  0
  6  7  2  0  0  0  0
  7  8  1  0  0  0  0
  8  9  2  0  0  0  0
  9 10  1  0  0  0  0
 10 11  2  0  0  0  0
 11 12  1  0  0  0  0
 12 13  2  0  0  0  0
 13 14  1  0  0  0  0
 14 15  1  0  0  0  0
 15 16  2  0  0  0  0
 15 17  1  0  0  0  0
 17 18  1  0  0  0  0
 18 19  1  0  0  0  0
 19 20  2  0  0  0  0
 19 21  1  0  0  0  0
 21 22  1  0  0  0  0
 22 23  2  0  0  0  0
 23 24  1  0  0  0  0
 24 25  2  0  0  0  0
 24 26  1  0  0  0  0
  9 27  1  0  0  0  0
 27 28  2  0  0  0  0
 28  6  1  0  0  0  0
 23 12  1  0  0  0  0
 21 14  2  0  0  0  0
  1 29  1  0  0  0  0
  1 30  1  0  0  0  0
  1 31  1  0  0  0  0
  2 32  1  0  0  0  0
  2 33  1  0  0  0  0
  4 34  1  0  0  0  0
  4 35  1  0  0  0  0
  5 36  1  0  0  0  0
  5 37  1  0  0  0  0
  5 38  1  0  0  0  0
  7 39  1  0  0  0  0
  8 40  1  0  0  0  0
 13 41  1  0  0  0  0
 17 42  1  0  0  0  0
 18 43  1  0  0  0  0
 22 44  1  0  0  0  0
 27 45  1  0  0  0  0
 28 46  1  0  0  0  0
M  CHG  1  24   1
M  CHG  1  26  -1
M  END
