
  xtb     03212212203D
 energy: -131.485492322835 gnorm: 0.000130043384 xtb: 6.4.1 (afa7bdf)
 74 82  0     0  0            999 V2000
    0.0987   -5.3326    3.4200 C   0  0  0  0  0  0  0  0  0  0  0  0
    0.1300   -4.2662    2.3323 C   0  0  0  0  0  0  0  0  0  0  0  0
   -0.0229   -2.8675    2.9469 C   0  0  0  0  0  0  0  0  0  0  0  0
   -0.0245   -1.7745    1.9909 N   0  0  0  0  0  0  0  0  0  0  0  0
   -1.2335   -1.3933    1.4213 C   0  0  0  0  0  0  0  0  0  0  0  0
   -2.3567   -2.2297    1.4815 C   0  0  0  0  0  0  0  0  0  0  0  0
   -3.5690   -1.8718    0.9328 C   0  0  0  0  0  0  0  0  0  0  0  0
   -3.7198   -0.6495    0.2766 C   0  0  0  0  0  0  0  0  0  0  0  0
   -4.9483   -0.2728   -0.2836 C   0  0  0  0  0  0  0  0  0  0  0  0
   -6.0123    0.0544   -0.7629 C   0  0  0  0  0  0  0  0  0  0  0  0
   -7.2402    0.4342   -1.3111 C   0  0  0  0  0  0  0  0  0  0  0  0
   -8.3294   -0.4496   -1.2766 C   0  0  0  0  0  0  0  0  0  0  0  0
   -8.4309   -1.7573   -0.7572 C   0  0  0  0  0  0  0  0  0  0  0  0
   -9.7254   -2.1759   -0.9858 C   0  0  0  0  0  0  0  0  0  0  0  0
  -10.3821   -1.1254   -1.6337 C   0  0  0  0  0  0  0  0  0  0  0  0
   -9.5492   -0.1016   -1.8049 N   0  0  0  0  0  4  0  0  0  0  0  0
   -9.8788    1.2551   -2.4742 B   0  0  0  0  0  4  0  0  0  0  0  0
  -10.8768    1.8942   -1.7709 F   0  0  0  0  0  0  0  0  0  0  0  0
  -10.2725    1.0519   -3.7787 F   0  0  0  0  0  0  0  0  0  0  0  0
   -8.5838    2.1029   -2.4389 N   0  0  0  0  0  0  0  0  0  0  0  0
   -8.4286    3.3358   -2.9149 C   0  0  0  0  0  0  0  0  0  0  0  0
   -7.1193    3.7751   -2.6947 C   0  0  0  0  0  0  0  0  0  0  0  0
   -6.4566    2.7501   -2.0526 C   0  0  0  0  0  0  0  0  0  0  0  0
   -7.3870    1.7007   -1.8956 C   0  0  0  0  0  0  0  0  0  0  0  0
   -2.6115    0.1982    0.2027 C   0  0  0  0  0  0  0  0  0  0  0  0
   -1.4072   -0.1609    0.7714 C   0  0  0  0  0  0  0  0  0  0  0  0
   -0.1288    1.0567    0.7090 S   0  0  0  0  0  0  0  0  0  0  0  0
    1.2863    0.0378    0.9913 C   0  0  0  0  0  0  0  0  0  0  0  0
    2.5010    0.5746    0.6185 C   0  0  0  0  0  0  0  0  0  0  0  0
    3.6948   -0.1017    0.8833 C   0  0  0  0  0  0  0  0  0  0  0  0
    4.9285    0.4572    0.5217 C   0  0  0  0  0  0  0  0  0  0  0  0
    5.9941    0.9434    0.2108 C   0  0  0  0  0  0  0  0  0  0  0  0
    7.2225    1.5092   -0.1406 C   0  0  0  0  0  0  0  0  0  0  0  0
    7.2627    2.7463   -0.8003 C   0  0  0  0  0  0  0  0  0  0  0  0
    6.2159    3.5960   -1.2171 C   0  0  0  0  0  0  0  0  0  0  0  0
    6.8066    4.6872   -1.8192 C   0  0  0  0  0  0  0  0  0  0  0  0
    8.1890    4.4845   -1.7587 C   0  0  0  0  0  0  0  0  0  0  0  0
    8.4560    3.3301   -1.1529 N   0  0  0  0  0  4  0  0  0  0  0  0
    9.8580    2.7323   -0.8807 B   0  0  0  0  0  4  0  0  0  0  0  0
   10.5827    3.5832   -0.0748 F   0  0  0  0  0  0  0  0  0  0  0  0
   10.5202    2.5267   -2.0713 F   0  0  0  0  0  0  0  0  0  0  0  0
    9.6402    1.3804   -0.1580 N   0  0  0  0  0  0  0  0  0  0  0  0
   10.5858    0.5407    0.2566 C   0  0  0  0  0  0  0  0  0  0  0  0
   10.0041   -0.5738    0.8684 C   0  0  0  0  0  0  0  0  0  0  0  0
    8.6379   -0.3900    0.8171 C   0  0  0  0  0  0  0  0  0  0  0  0
    8.4182    0.8436    0.1690 C   0  0  0  0  0  0  0  0  0  0  0  0
    3.6204   -1.3384    1.5255 C   0  0  0  0  0  0  0  0  0  0  0  0
    2.4007   -1.8764    1.8744 C   0  0  0  0  0  0  0  0  0  0  0  0
    1.1919   -1.2136    1.6210 C   0  0  0  0  0  0  0  0  0  0  0  0
   -0.8425   -5.2999    3.9645 H   0  0  0  0  0  0  0  0  0  0  0  0
    0.9084   -5.1816    4.1306 H   0  0  0  0  0  0  0  0  0  0  0  0
    0.2069   -6.3217    2.9831 H   0  0  0  0  0  0  0  0  0  0  0  0
   -0.6704   -4.4510    1.6147 H   0  0  0  0  0  0  0  0  0  0  0  0
    1.0680   -4.3341    1.7799 H   0  0  0  0  0  0  0  0  0  0  0  0
   -0.9560   -2.8176    3.5147 H   0  0  0  0  0  0  0  0  0  0  0  0
    0.7873   -2.6898    3.6592 H   0  0  0  0  0  0  0  0  0  0  0  0
   -2.2984   -3.1883    1.9660 H   0  0  0  0  0  0  0  0  0  0  0  0
   -4.4095   -2.5444    1.0089 H   0  0  0  0  0  0  0  0  0  0  0  0
   -7.6349   -2.2963   -0.2819 H   0  0  0  0  0  0  0  0  0  0  0  0
  -10.1604   -3.1201   -0.7242 H   0  0  0  0  0  0  0  0  0  0  0  0
  -11.3975   -1.0680   -1.9753 H   0  0  0  0  0  0  0  0  0  0  0  0
   -9.2455    3.8474   -3.3862 H   0  0  0  0  0  0  0  0  0  0  0  0
   -6.7232    4.7300   -2.9778 H   0  0  0  0  0  0  0  0  0  0  0  0
   -5.4361    2.7248   -1.7242 H   0  0  0  0  0  0  0  0  0  0  0  0
   -2.6957    1.1581   -0.2831 H   0  0  0  0  0  0  0  0  0  0  0  0
    2.5216    1.5415    0.1399 H   0  0  0  0  0  0  0  0  0  0  0  0
    5.1705    3.4018   -1.0782 H   0  0  0  0  0  0  0  0  0  0  0  0
    6.3165    5.5353   -2.2546 H   0  0  0  0  0  0  0  0  0  0  0  0
    8.9826    5.1100   -2.1191 H   0  0  0  0  0  0  0  0  0  0  0  0
   11.6235    0.7655    0.1026 H   0  0  0  0  0  0  0  0  0  0  0  0
   10.5342   -1.4039    1.2916 H   0  0  0  0  0  0  0  0  0  0  0  0
    7.8681   -1.0383    1.1876 H   0  0  0  0  0  0  0  0  0  0  0  0
    4.5267   -1.8810    1.7463 H   0  0  0  0  0  0  0  0  0  0  0  0
    2.4053   -2.8382    2.3561 H   0  0  0  0  0  0  0  0  0  0  0  0
  1  2  1  0  0  0  0
  2  3  1  0  0  0  0
  3  4  1  0  0  0  0
  4  5  1  0  0  0  0
  5  6  2  0  0  0  0
  6  7  1  0  0  0  0
  7  8  2  0  0  0  0
  8  9  1  0  0  0  0
  9 10  3  0  0  0  0
 10 11  1  0  0  0  0
 11 12  2  0  0  0  0
 12 13  1  0  0  0  0
 13 14  2  0  0  0  0
 14 15  1  0  0  0  0
 15 16  2  0  0  0  0
 16 17  1  0  0  0  0
 17 18  1  0  0  0  0
 17 19  1  0  0  0  0
 17 20  1  0  0  0  0
 20 21  1  0  0  0  0
 21 22  2  0  0  0  0
 22 23  1  0  0  0  0
 23 24  2  0  0  0  0
  8 25  1  0  0  0  0
 25 26  2  0  0  0  0
 26 27  1  0  0  0  0
 27 28  1  0  0  0  0
 28 29  2  0  0  0  0
 29 30  1  0  0  0  0
 30 31  1  0  0  0  0
 31 32  3  0  0  0  0
 32 33  1  0  0  0  0
 33 34  2  0  0  0  0
 34 35  1  0  0  0  0
 35 36  2  0  0  0  0
 36 37  1  0  0  0  0
 37 38  2  0  0  0  0
 38 39  1  0  0  0  0
 39 40  1  0  0  0  0
 39 41  1  0  0  0  0
 39 42  1  0  0  0  0
 42 43  1  0  0  0  0
 43 44  2  0  0  0  0
 44 45  1  0  0  0  0
 45 46  2  0  0  0  0
 30 47  2  0  0  0  0
 47 48  1  0  0  0  0
 48 49  2  0  0  0  0
 49  4  1  0  0  0  0
 26  5  1  0  0  0  0
 49 28  1  0  0  0  0
 24 11  1  0  0  0  0
 46 33  1  0  0  0  0
 16 12  1  0  0  0  0
 24 20  1  0  0  0  0
 38 34  1  0  0  0  0
 46 42  1  0  0  0  0
  1 50  1  0  0  0  0
  1 51  1  0  0  0  0
  1 52  1  0  0  0  0
  2 53  1  0  0  0  0
  2 54  1  0  0  0  0
  3 55  1  0  0  0  0
  3 56  1  0  0  0  0
  6 57  1  0  0  0  0
  7 58  1  0  0  0  0
 13 59  1  0  0  0  0
 14 60  1  0  0  0  0
 15 61  1  0  0  0  0
 21 62  1  0  0  0  0
 22 63  1  0  0  0  0
 23 64  1  0  0  0  0
 25 65  1  0  0  0  0
 29 66  1  0  0  0  0
 35 67  1  0  0  0  0
 36 68  1  0  0  0  0
 37 69  1  0  0  0  0
 43 70  1  0  0  0  0
 44 71  1  0  0  0  0
 45 72  1  0  0  0  0
 47 73  1  0  0  0  0
 48 74  1  0  0  0  0
M  CHG  1  16   1
M  CHG  1  17  -1
M  CHG  1  38   1
M  CHG  1  39  -1
M  END
