
  xtb     03212212183D
 energy: -51.040078279421 gnorm: 0.000167720744 xtb: 6.4.1 (afa7bdf)
 34 36  0     0  0            999 V2000
    0.0357    1.4143    1.4625 C   0  0  0  0  0  0  0  0  0  0  0  0
   -0.3502    0.4218    0.4086 C   0  0  0  0  0  0  0  0  0  0  0  0
    0.4956   -0.3431   -0.3082 C   0  0  0  0  0  0  0  0  0  0  0  0
    1.9468   -0.3454   -0.2734 C   0  0  0  0  0  0  0  0  0  0  0  0
    2.6215   -1.5558   -0.4538 C   0  0  0  0  0  0  0  0  0  0  0  0
    3.9994   -1.6140   -0.4202 C   0  0  0  0  0  0  0  0  0  0  0  0
    4.7579   -0.4637   -0.2335 C   0  0  0  0  0  0  0  0  0  0  0  0
    6.2533   -0.5240   -0.1809 C   0  0  0  0  0  0  0  0  0  0  0  0
    4.0911    0.7475   -0.0905 C   0  0  0  0  0  0  0  0  0  0  0  0
    2.7116    0.8106   -0.1065 C   0  0  0  0  0  0  0  0  0  0  0  0
   -1.7671    0.2509    0.1837 C   0  0  0  0  0  0  0  0  0  0  0  0
   -2.3157   -0.5589   -0.6717 N   0  0  0  0  0  0  0  0  0  0  0  0
   -3.6655   -0.3722   -0.5369 C   0  0  0  0  0  0  0  0  0  0  0  0
   -4.7493   -0.9552   -1.1818 C   0  0  0  0  0  0  0  0  0  0  0  0
   -6.0085   -0.5349   -0.8059 C   0  0  0  0  0  0  0  0  0  0  0  0
   -6.1985    0.4342    0.1798 C   0  0  0  0  0  0  0  0  0  0  0  0
   -5.1335    1.0263    0.8342 C   0  0  0  0  0  0  0  0  0  0  0  0
   -3.8722    0.6069    0.4590 C   0  0  0  0  0  0  0  0  0  0  0  0
   -2.6542    0.9936    0.9087 O   0  0  0  0  0  0  0  0  0  0  0  0
   -0.6875    1.3880    2.2753 H   0  0  0  0  0  0  0  0  0  0  0  0
    0.0356    2.4261    1.0565 H   0  0  0  0  0  0  0  0  0  0  0  0
    1.0241    1.1919    1.8556 H   0  0  0  0  0  0  0  0  0  0  0  0
    0.0413   -1.0721   -0.9669 H   0  0  0  0  0  0  0  0  0  0  0  0
    2.0481   -2.4591   -0.6041 H   0  0  0  0  0  0  0  0  0  0  0  0
    4.4977   -2.5645   -0.5490 H   0  0  0  0  0  0  0  0  0  0  0  0
    6.5890   -0.5321    0.8568 H   0  0  0  0  0  0  0  0  0  0  0  0
    6.6241   -1.4251   -0.6634 H   0  0  0  0  0  0  0  0  0  0  0  0
    6.6933    0.3445   -0.6667 H   0  0  0  0  0  0  0  0  0  0  0  0
    4.6642    1.6562    0.0308 H   0  0  0  0  0  0  0  0  0  0  0  0
    2.2246    1.7701   -0.0348 H   0  0  0  0  0  0  0  0  0  0  0  0
   -4.5986   -1.7032   -1.9429 H   0  0  0  0  0  0  0  0  0  0  0  0
   -6.8752   -0.9652   -1.2857 H   0  0  0  0  0  0  0  0  0  0  0  0
   -7.2041    0.7299    0.4385 H   0  0  0  0  0  0  0  0  0  0  0  0
   -5.2744    1.7756    1.5967 H   0  0  0  0  0  0  0  0  0  0  0  0
  1  2  1  0  0  0  0
  2  3  2  0  0  0  0
  3  4  1  0  0  0  0
  4  5  2  0  0  0  0
  5  6  1  0  0  0  0
  6  7  2  0  0  0  0
  7  8  1  0  0  0  0
  7  9  1  0  0  0  0
  9 10  2  0  0  0  0
  2 11  1  0  0  0  0
 11 12  2  0  0  0  0
 12 13  1  0  0  0  0
 13 14  2  0  0  0  0
 14 15  1  0  0  0  0
 15 16  2  0  0  0  0
 16 17  1  0  0  0  0
 17 18  2  0  0  0  0
 18 19  1  0  0  0  0
 10  4  1  0  0  0  0
 19 11  1  0  0  0  0
 18 13  1  0  0  0  0
  1 20  1  0  0  0  0
  1 21  1  0  0  0  0
  1 22  1  0  0  0  0
  3 23  1  0  0  0  0
  5 24  1  0  0  0  0
  6 25  1  0  0  0  0
  8 26  1  0  0  0  0
  8 27  1  0  0  0  0
  8 28  1  0  0  0  0
  9 29  1  0  0  0  0
 10 30  1  0  0  0  0
 14 31  1  0  0  0  0
 15 32  1  0  0  0  0
 16 33  1  0  0  0  0
 17 34  1  0  0  0  0
M  END
