
  xtb     03212210523D
 energy: -59.876643834743 gnorm: 0.000334540189 xtb: 6.4.1 (afa7bdf)
 36 37  0     0  0            999 V2000
    4.9106    1.1275    0.5599 C   0  0  0  0  0  0  0  0  0  0  0  0
    4.3739    0.0551   -0.3752 C   0  0  0  0  0  0  0  0  0  0  0  0
    3.5662    0.6190   -1.4153 O   0  0  0  0  0  0  0  0  0  0  0  0
    2.3047    0.8980   -1.1287 C   0  0  0  0  0  0  0  0  0  0  0  0
    1.7880    0.7619   -0.0462 O   0  0  0  0  0  0  0  0  0  0  0  0
    1.5428    1.3102   -2.3661 C   0  0  0  0  0  0  0  0  0  0  0  0
    0.7921   -0.2495   -2.9643 S   0  0  0  0  0  0  0  0  0  0  0  0
   -0.2394   -0.5233   -1.5322 C   0  0  0  0  0  0  0  0  0  0  0  0
   -1.2393    0.3066   -1.3613 N   0  0  0  0  0  0  0  0  0  0  0  0
   -2.0390    0.1851   -0.3108 C   0  0  0  0  0  0  0  0  0  0  0  0
   -1.8700   -0.8258    0.6428 C   0  0  0  0  0  0  0  0  0  0  0  0
   -0.7928   -1.6991    0.4701 C   0  0  0  0  0  0  0  0  0  0  0  0
   -0.5344   -2.7219    1.4149 C   0  0  0  0  0  0  0  0  0  0  0  0
   -0.3365   -3.5493    2.1818 N   0  0  0  0  0  0  0  0  0  0  0  0
    0.0565   -1.5570   -0.6404 C   0  0  0  0  0  0  0  0  0  0  0  0
    1.2132   -2.3484   -0.7934 C   0  0  0  0  0  0  0  0  0  0  0  0
    2.1865   -2.9441   -0.8995 N   0  0  0  0  0  0  0  0  0  0  0  0
   -2.7702   -0.9552    1.8337 C   0  0  0  0  0  0  0  0  0  0  0  0
   -4.0720   -0.1805    1.6535 C   0  0  0  0  0  0  0  0  0  0  0  0
   -3.7648    1.2346    1.1766 C   0  0  0  0  0  0  0  0  0  0  0  0
   -3.1525    1.1805   -0.2184 C   0  0  0  0  0  0  0  0  0  0  0  0
    4.0895    1.6149    1.0801 H   0  0  0  0  0  0  0  0  0  0  0  0
    5.4676    1.8737   -0.0020 H   0  0  0  0  0  0  0  0  0  0  0  0
    5.5687    0.6703    1.2929 H   0  0  0  0  0  0  0  0  0  0  0  0
    3.7753   -0.6752    0.1786 H   0  0  0  0  0  0  0  0  0  0  0  0
    5.1822   -0.4551   -0.9014 H   0  0  0  0  0  0  0  0  0  0  0  0
    0.7426    2.0134   -2.1446 H   0  0  0  0  0  0  0  0  0  0  0  0
    2.2018    1.6631   -3.1538 H   0  0  0  0  0  0  0  0  0  0  0  0
   -2.9728   -2.0114    2.0296 H   0  0  0  0  0  0  0  0  0  0  0  0
   -2.2334   -0.5687    2.7073 H   0  0  0  0  0  0  0  0  0  0  0  0
   -4.7026   -0.6835    0.9172 H   0  0  0  0  0  0  0  0  0  0  0  0
   -4.6139   -0.1571    2.5997 H   0  0  0  0  0  0  0  0  0  0  0  0
   -3.0652    1.7071    1.8692 H   0  0  0  0  0  0  0  0  0  0  0  0
   -4.6742    1.8362    1.1541 H   0  0  0  0  0  0  0  0  0  0  0  0
   -3.9154    0.8912   -0.9482 H   0  0  0  0  0  0  0  0  0  0  0  0
   -2.7739    2.1562   -0.5272 H   0  0  0  0  0  0  0  0  0  0  0  0
  1  2  1  0  0  0  0
  2  3  1  0  0  0  0
  3  4  1  0  0  0  0
  4  5  2  0  0  0  0
  4  6  1  0  0  0  0
  6  7  1  0  0  0  0
  7  8  1  0  0  0  0
  8  9  2  0  0  0  0
  9 10  1  0  0  0  0
 10 11  2  0  0  0  0
 11 12  1  0  0  0  0
 12 13  1  0  0  0  0
 13 14  3  0  0  0  0
 12 15  2  0  0  0  0
 15 16  1  0  0  0  0
 16 17  3  0  0  0  0
 11 18  1  0  0  0  0
 18 19  1  0  0  0  0
 19 20  1  0  0  0  0
 20 21  1  0  0  0  0
 15  8  1  0  0  0  0
 21 10  1  0  0  0  0
  1 22  1  0  0  0  0
  1 23  1  0  0  0  0
  1 24  1  0  0  0  0
  2 25  1  0  0  0  0
  2 26  1  0  0  0  0
  6 27  1  0  0  0  0
  6 28  1  0  0  0  0
 18 29  1  0  0  0  0
 18 30  1  0  0  0  0
 19 31  1  0  0  0  0
 19 32  1  0  0  0  0
 20 33  1  0  0  0  0
 20 34  1  0  0  0  0
 21 35  1  0  0  0  0
 21 36  1  0  0  0  0
M  END
