
  xtb     03212210553D
 energy: -154.905270224087 gnorm: 0.000284575791 xtb: 6.4.1 (afa7bdf)
106113  0     0  0            999 V2000
   -6.7649    9.2743    0.0333 C   0  0  0  0  0  0  0  0  0  0  0  0
   -7.3810    7.9792    0.1726 N   0  0  0  0  0  0  0  0  0  0  0  0
   -8.8116    7.9209    0.3311 C   0  0  0  0  0  0  0  0  0  0  0  0
   -6.6287    6.8336    0.1287 C   0  0  0  0  0  0  0  0  0  0  0  0
   -7.2295    5.5704    0.0097 C   0  0  0  0  0  0  0  0  0  0  0  0
   -6.4727    4.4222   -0.0308 C   0  0  0  0  0  0  0  0  0  0  0  0
   -5.0786    4.4769    0.0423 C   0  0  0  0  0  0  0  0  0  0  0  0
   -4.3058    3.3035   -0.0024 C   0  0  0  0  0  0  0  0  0  0  0  0
   -3.6314    2.2994   -0.0400 C   0  0  0  0  0  0  0  0  0  0  0  0
   -2.8628    1.1235   -0.0891 C   0  0  0  0  0  0  0  0  0  0  0  0
   -3.5008   -0.1041   -0.2330 C   0  0  0  0  0  0  0  0  0  0  0  0
   -2.7781   -1.2912   -0.2885 C   0  0  0  0  0  0  0  0  0  0  0  0
   -3.4635   -2.5098   -0.4341 C   0  0  0  0  0  0  0  0  0  0  0  0
   -4.0666   -3.5515   -0.5591 C   0  0  0  0  0  0  0  0  0  0  0  0
   -4.7562   -4.7680   -0.7032 C   0  0  0  0  0  0  0  0  0  0  0  0
   -6.1470   -4.7957   -0.8275 C   0  0  0  0  0  0  0  0  0  0  0  0
   -6.8230   -5.9861   -0.9680 C   0  0  0  0  0  0  0  0  0  0  0  0
   -6.1412   -7.2129   -0.9952 C   0  0  0  0  0  0  0  0  0  0  0  0
   -6.8082   -8.4021   -1.1696 N   0  0  0  0  0  0  0  0  0  0  0  0
   -6.1162   -9.6498   -0.9566 C   0  0  0  0  0  0  0  0  0  0  0  0
   -8.2488   -8.4232   -1.2136 C   0  0  0  0  0  0  0  0  0  0  0  0
   -4.7438   -7.1761   -0.8643 C   0  0  0  0  0  0  0  0  0  0  0  0
   -4.0700   -5.9847   -0.7241 C   0  0  0  0  0  0  0  0  0  0  0  0
   -1.3659   -1.2664   -0.1998 C   0  0  0  0  0  0  0  0  0  0  0  0
   -0.5917   -2.4529   -0.2555 C   0  0  0  0  0  0  0  0  0  0  0  0
    0.7627   -2.4124   -0.1696 C   0  0  0  0  0  0  0  0  0  0  0  0
    1.4517   -1.1825   -0.0198 C   0  0  0  0  0  0  0  0  0  0  0  0
    2.8628   -1.1234    0.0716 C   0  0  0  0  0  0  0  0  0  0  0  0
    3.6320   -2.2983    0.0098 C   0  0  0  0  0  0  0  0  0  0  0  0
    4.3076   -3.3008   -0.0449 C   0  0  0  0  0  0  0  0  0  0  0  0
    5.0819   -4.4721   -0.1127 C   0  0  0  0  0  0  0  0  0  0  0  0
    6.4731   -4.4213    0.0056 C   0  0  0  0  0  0  0  0  0  0  0  0
    7.2319   -5.5666   -0.0650 C   0  0  0  0  0  0  0  0  0  0  0  0
    6.6359   -6.8233   -0.2552 C   0  0  0  0  0  0  0  0  0  0  0  0
    7.3916   -7.9653   -0.3263 N   0  0  0  0  0  0  0  0  0  0  0  0
    8.7826   -7.9582    0.0486 C   0  0  0  0  0  0  0  0  0  0  0  0
    6.8169   -9.2090   -0.7715 C   0  0  0  0  0  0  0  0  0  0  0  0
    5.2376   -6.8665   -0.3705 C   0  0  0  0  0  0  0  0  0  0  0  0
    4.4813   -5.7193   -0.3025 C   0  0  0  0  0  0  0  0  0  0  0  0
    3.5005    0.1036    0.2220 C   0  0  0  0  0  0  0  0  0  0  0  0
    2.7774    1.2903    0.2833 C   0  0  0  0  0  0  0  0  0  0  0  0
    3.4618    2.5082    0.4385 C   0  0  0  0  0  0  0  0  0  0  0  0
    4.0650    3.5483    0.5754 C   0  0  0  0  0  0  0  0  0  0  0  0
    4.7543    4.7628    0.7374 C   0  0  0  0  0  0  0  0  0  0  0  0
    6.1482    4.7914    0.8265 C   0  0  0  0  0  0  0  0  0  0  0  0
    6.8230    5.9791    0.9901 C   0  0  0  0  0  0  0  0  0  0  0  0
    6.1363    7.2010    1.0697 C   0  0  0  0  0  0  0  0  0  0  0  0
    6.8074    8.3856    1.2321 N   0  0  0  0  0  0  0  0  0  0  0  0
    6.0995    9.5989    1.5521 C   0  0  0  0  0  0  0  0  0  0  0  0
    8.2403    8.4487    1.0964 C   0  0  0  0  0  0  0  0  0  0  0  0
    4.7360    7.1642    0.9763 C   0  0  0  0  0  0  0  0  0  0  0  0
    4.0634    5.9748    0.8159 C   0  0  0  0  0  0  0  0  0  0  0  0
    1.3653    1.2657    0.1911 C   0  0  0  0  0  0  0  0  0  0  0  0
    0.5913    2.4523    0.2457 C   0  0  0  0  0  0  0  0  0  0  0  0
   -0.7628    2.4122    0.1559 C   0  0  0  0  0  0  0  0  0  0  0  0
   -1.4519    1.1823    0.0055 C   0  0  0  0  0  0  0  0  0  0  0  0
   -0.7080   -0.0212   -0.0516 C   0  0  0  0  0  0  0  0  0  0  0  0
    0.7077    0.0208    0.0402 C   0  0  0  0  0  0  0  0  0  0  0  0
   -4.4730    5.7307    0.1596 C   0  0  0  0  0  0  0  0  0  0  0  0
   -5.2276    6.8802    0.2032 C   0  0  0  0  0  0  0  0  0  0  0  0
   -6.2680    9.5930    0.9577 H   0  0  0  0  0  0  0  0  0  0  0  0
   -6.0281    9.2650   -0.7729 H   0  0  0  0  0  0  0  0  0  0  0  0
   -7.5257   10.0109   -0.2178 H   0  0  0  0  0  0  0  0  0  0  0  0
   -9.3184    7.6451   -0.6021 H   0  0  0  0  0  0  0  0  0  0  0  0
   -9.1795    8.8957    0.6458 H   0  0  0  0  0  0  0  0  0  0  0  0
   -9.0822    7.1962    1.1018 H   0  0  0  0  0  0  0  0  0  0  0  0
   -8.3014    5.4833   -0.0683 H   0  0  0  0  0  0  0  0  0  0  0  0
   -6.9589    3.4617   -0.1268 H   0  0  0  0  0  0  0  0  0  0  0  0
   -4.5792   -0.1362   -0.3032 H   0  0  0  0  0  0  0  0  0  0  0  0
   -6.6973   -3.8657   -0.8086 H   0  0  0  0  0  0  0  0  0  0  0  0
   -7.8971   -5.9551   -1.0517 H   0  0  0  0  0  0  0  0  0  0  0  0
   -6.8190  -10.4746   -1.0455 H   0  0  0  0  0  0  0  0  0  0  0  0
   -5.3351   -9.7917   -1.7085 H   0  0  0  0  0  0  0  0  0  0  0  0
   -5.6565   -9.6972    0.0372 H   0  0  0  0  0  0  0  0  0  0  0  0
   -8.6134   -7.7755   -2.0139 H   0  0  0  0  0  0  0  0  0  0  0  0
   -8.6990   -8.0982   -0.2672 H   0  0  0  0  0  0  0  0  0  0  0  0
   -8.5888   -9.4348   -1.4248 H   0  0  0  0  0  0  0  0  0  0  0  0
   -4.1704   -8.0886   -0.8757 H   0  0  0  0  0  0  0  0  0  0  0  0
   -2.9936   -5.9871   -0.6268 H   0  0  0  0  0  0  0  0  0  0  0  0
   -1.1119   -3.3933   -0.3691 H   0  0  0  0  0  0  0  0  0  0  0  0
    1.3479   -3.3199   -0.2127 H   0  0  0  0  0  0  0  0  0  0  0  0
    6.9559   -3.4650    0.1486 H   0  0  0  0  0  0  0  0  0  0  0  0
    8.3039   -5.4798    0.0125 H   0  0  0  0  0  0  0  0  0  0  0  0
    8.9293   -7.3854    0.9666 H   0  0  0  0  0  0  0  0  0  0  0  0
    9.1110   -8.9790    0.2356 H   0  0  0  0  0  0  0  0  0  0  0  0
    9.4175   -7.5296   -0.7366 H   0  0  0  0  0  0  0  0  0  0  0  0
    7.6137   -9.8880   -1.0697 H   0  0  0  0  0  0  0  0  0  0  0  0
    6.1745   -9.0451   -1.6390 H   0  0  0  0  0  0  0  0  0  0  0  0
    6.2259   -9.6940    0.0152 H   0  0  0  0  0  0  0  0  0  0  0  0
    4.7317   -7.8099   -0.4993 H   0  0  0  0  0  0  0  0  0  0  0  0
    3.4058   -5.7806   -0.3913 H   0  0  0  0  0  0  0  0  0  0  0  0
    4.5789    0.1358    0.2921 H   0  0  0  0  0  0  0  0  0  0  0  0
    6.6998    3.8636    0.7718 H   0  0  0  0  0  0  0  0  0  0  0  0
    7.8978    5.9530    1.0723 H   0  0  0  0  0  0  0  0  0  0  0  0
    5.5918   10.0205    0.6759 H   0  0  0  0  0  0  0  0  0  0  0  0
    6.8029   10.3389    1.9290 H   0  0  0  0  0  0  0  0  0  0  0  0
    5.3559    9.4162    2.3310 H   0  0  0  0  0  0  0  0  0  0  0  0
    8.7542    8.0439    1.9770 H   0  0  0  0  0  0  0  0  0  0  0  0
    8.5456    9.4854    0.9684 H   0  0  0  0  0  0  0  0  0  0  0  0
    8.5675    7.8918    0.2156 H   0  0  0  0  0  0  0  0  0  0  0  0
    4.1641    8.0775    1.0145 H   0  0  0  0  0  0  0  0  0  0  0  0
    2.9850    5.9748    0.7439 H   0  0  0  0  0  0  0  0  0  0  0  0
    1.1114    3.3925    0.3606 H   0  0  0  0  0  0  0  0  0  0  0  0
   -1.3480    3.3198    0.1975 H   0  0  0  0  0  0  0  0  0  0  0  0
   -3.3959    5.7943    0.2222 H   0  0  0  0  0  0  0  0  0  0  0  0
   -4.7201    7.8253    0.3123 H   0  0  0  0  0  0  0  0  0  0  0  0
  1  2  1  0  0  0  0
  2  3  1  0  0  0  0
  2  4  1  0  0  0  0
  4  5  2  0  0  0  0
  5  6  1  0  0  0  0
  6  7  2  0  0  0  0
  7  8  1  0  0  0  0
  8  9  3  0  0  0  0
  9 10  1  0  0  0  0
 10 11  2  0  0  0  0
 11 12  1  0  0  0  0
 12 13  1  0  0  0  0
 13 14  3  0  0  0  0
 14 15  1  0  0  0  0
 15 16  2  0  0  0  0
 16 17  1  0  0  0  0
 17 18  2  0  0  0  0
 18 19  1  0  0  0  0
 19 20  1  0  0  0  0
 19 21  1  0  0  0  0
 18 22  1  0  0  0  0
 22 23  2  0  0  0  0
 12 24  2  0  0  0  0
 24 25  1  0  0  0  0
 25 26  2  0  0  0  0
 26 27  1  0  0  0  0
 27 28  2  0  0  0  0
 28 29  1  0  0  0  0
 29 30  3  0  0  0  0
 30 31  1  0  0  0  0
 31 32  2  0  0  0  0
 32 33  1  0  0  0  0
 33 34  2  0  0  0  0
 34 35  1  0  0  0  0
 35 36  1  0  0  0  0
 35 37  1  0  0  0  0
 34 38  1  0  0  0  0
 38 39  2  0  0  0  0
 28 40  1  0  0  0  0
 40 41  2  0  0  0  0
 41 42  1  0  0  0  0
 42 43  3  0  0  0  0
 43 44  1  0  0  0  0
 44 45  2  0  0  0  0
 45 46  1  0  0  0  0
 46 47  2  0  0  0  0
 47 48  1  0  0  0  0
 48 49  1  0  0  0  0
 48 50  1  0  0  0  0
 47 51  1  0  0  0  0
 51 52  2  0  0  0  0
 41 53  1  0  0  0  0
 53 54  2  0  0  0  0
 54 55  1  0  0  0  0
 55 56  2  0  0  0  0
 56 57  1  0  0  0  0
 57 58  2  0  0  0  0
  7 59  1  0  0  0  0
 59 60  2  0  0  0  0
 60  4  1  0  0  0  0
 56 10  1  0  0  0  0
 23 15  1  0  0  0  0
 57 24  1  0  0  0  0
 58 27  1  0  0  0  0
 39 31  1  0  0  0  0
 52 44  1  0  0  0  0
 58 53  1  0  0  0  0
  1 61  1  0  0  0  0
  1 62  1  0  0  0  0
  1 63  1  0  0  0  0
  3 64  1  0  0  0  0
  3 65  1  0  0  0  0
  3 66  1  0  0  0  0
  5 67  1  0  0  0  0
  6 68  1  0  0  0  0
 11 69  1  0  0  0  0
 16 70  1  0  0  0  0
 17 71  1  0  0  0  0
 20 72  1  0  0  0  0
 20 73  1  0  0  0  0
 20 74  1  0  0  0  0
 21 75  1  0  0  0  0
 21 76  1  0  0  0  0
 21 77  1  0  0  0  0
 22 78  1  0  0  0  0
 23 79  1  0  0  0  0
 25 80  1  0  0  0  0
 26 81  1  0  0  0  0
 32 82  1  0  0  0  0
 33 83  1  0  0  0  0
 36 84  1  0  0  0  0
 36 85  1  0  0  0  0
 36 86  1  0  0  0  0
 37 87  1  0  0  0  0
 37 88  1  0  0  0  0
 37 89  1  0  0  0  0
 38 90  1  0  0  0  0
 39 91  1  0  0  0  0
 40 92  1  0  0  0  0
 45 93  1  0  0  0  0
 46 94  1  0  0  0  0
 49 95  1  0  0  0  0
 49 96  1  0  0  0  0
 49 97  1  0  0  0  0
 50 98  1  0  0  0  0
 50 99  1  0  0  0  0
 50100  1  0  0  0  0
 51101  1  0  0  0  0
 52102  1  0  0  0  0
 54103  1  0  0  0  0
 55104  1  0  0  0  0
 59105  1  0  0  0  0
 60106  1  0  0  0  0
M  END
