
  xtb     03212212133D
 energy: -62.445998237164 gnorm: 0.000249150804 xtb: 6.4.1 (afa7bdf)
 36 39  0     0  0            999 V2000
   -2.9282    2.9123    1.1181 C   0  0  0  0  0  0  0  0  0  0  0  0
   -3.8653    1.9156    0.7822 O   0  0  0  0  0  0  0  0  0  0  0  0
   -3.4054    0.7199    0.3417 C   0  0  0  0  0  0  0  0  0  0  0  0
   -4.4034   -0.2287    0.0239 C   0  0  0  0  0  0  0  0  0  0  0  0
   -4.0659   -1.4694   -0.4300 C   0  0  0  0  0  0  0  0  0  0  0  0
   -2.7144   -1.8399   -0.5946 C   0  0  0  0  0  0  0  0  0  0  0  0
   -2.3369   -3.1184   -1.0630 C   0  0  0  0  0  0  0  0  0  0  0  0
   -1.0238   -3.4641   -1.2175 C   0  0  0  0  0  0  0  0  0  0  0  0
   -0.0279   -2.5261   -0.9034 C   0  0  0  0  0  0  0  0  0  0  0  0
    1.2686   -2.8781   -1.0593 O   0  0  0  0  0  0  0  0  0  0  0  0
    2.2898   -2.0146   -0.7725 C   0  0  0  0  0  0  0  0  0  0  0  0
    3.4124   -2.4224   -0.9432 O   0  0  0  0  0  0  0  0  0  0  0  0
    1.8837   -0.6762   -0.2853 C   0  0  0  0  0  0  0  0  0  0  0  0
    2.8680    0.3507    0.0567 C   0  0  0  0  0  0  0  0  0  0  0  0
    2.3974    1.5938    0.4987 C   0  0  0  0  0  0  0  0  0  0  0  0
    3.2733    2.6029    0.8364 C   0  0  0  0  0  0  0  0  0  0  0  0
    4.6417    2.3962    0.7411 C   0  0  0  0  0  0  0  0  0  0  0  0
    5.1199    1.1720    0.3056 C   0  0  0  0  0  0  0  0  0  0  0  0
    4.2476    0.1542   -0.0350 C   0  0  0  0  0  0  0  0  0  0  0  0
    0.6304   -0.3611   -0.1428 N   0  0  0  0  0  0  0  0  0  0  0  0
   -0.3478   -1.2516   -0.4384 C   0  0  0  0  0  0  0  0  0  0  0  0
   -1.7185   -0.8860   -0.2750 C   0  0  0  0  0  0  0  0  0  0  0  0
   -2.0772    0.3862    0.1908 C   0  0  0  0  0  0  0  0  0  0  0  0
   -2.3167    3.1924    0.2549 H   0  0  0  0  0  0  0  0  0  0  0  0
   -2.2769    2.5886    1.9358 H   0  0  0  0  0  0  0  0  0  0  0  0
   -3.5141    3.7714    1.4407 H   0  0  0  0  0  0  0  0  0  0  0  0
   -5.4333    0.0643    0.1532 H   0  0  0  0  0  0  0  0  0  0  0  0
   -4.8353   -2.1881   -0.6705 H   0  0  0  0  0  0  0  0  0  0  0  0
   -3.1135   -3.8302   -1.3010 H   0  0  0  0  0  0  0  0  0  0  0  0
   -0.7240   -4.4366   -1.5738 H   0  0  0  0  0  0  0  0  0  0  0  0
    1.3320    1.7438    0.5686 H   0  0  0  0  0  0  0  0  0  0  0  0
    2.8930    3.5557    1.1754 H   0  0  0  0  0  0  0  0  0  0  0  0
    5.3293    3.1862    1.0051 H   0  0  0  0  0  0  0  0  0  0  0  0
    6.1843    1.0056    0.2295 H   0  0  0  0  0  0  0  0  0  0  0  0
    4.6355   -0.7921   -0.3719 H   0  0  0  0  0  0  0  0  0  0  0  0
   -1.2786    1.0716    0.4189 H   0  0  0  0  0  0  0  0  0  0  0  0
  1  2  1  0  0  0  0
  2  3  1  0  0  0  0
  3  4  2  0  0  0  0
  4  5  1  0  0  0  0
  5  6  2  0  0  0  0
  6  7  1  0  0  0  0
  7  8  2  0  0  0  0
  8  9  1  0  0  0  0
  9 10  1  0  0  0  0
 10 11  1  0  0  0  0
 11 12  2  0  0  0  0
 11 13  1  0  0  0  0
 13 14  1  0  0  0  0
 14 15  2  0  0  0  0
 15 16  1  0  0  0  0
 16 17  2  0  0  0  0
 17 18  1  0  0  0  0
 18 19  2  0  0  0  0
 13 20  2  0  0  0  0
 20 21  1  0  0  0  0
 21 22  1  0  0  0  0
 22 23  2  0  0  0  0
 23  3  1  0  0  0  0
 22  6  1  0  0  0  0
 21  9  2  0  0  0  0
 19 14  1  0  0  0  0
  1 24  1  0  0  0  0
  1 25  1  0  0  0  0
  1 26  1  0  0  0  0
  4 27  1  0  0  0  0
  5 28  1  0  0  0  0
  7 29  1  0  0  0  0
  8 30  1  0  0  0  0
 15 31  1  0  0  0  0
 16 32  1  0  0  0  0
 17 33  1  0  0  0  0
 18 34  1  0  0  0  0
 19 35  1  0  0  0  0
 23 36  1  0  0  0  0
M  END
