
  xtb     03212212263D
 energy: -53.317616691295 gnorm: 0.000395975932 xtb: 6.4.1 (afa7bdf)
 32 36  0     0  0            999 V2000
    6.2429   -1.2535    0.4485 O   0  0  0  0  0  0  0  0  0  0  0  0
    5.5457   -0.2826    0.2406 C   0  0  0  0  0  0  0  0  0  0  0  0
    4.1070   -0.3053    0.1967 C   0  0  0  0  0  0  0  0  0  0  0  0
    3.2060    0.7210   -0.0273 C   0  0  0  0  0  0  0  0  0  0  0  0
    1.9144    0.1643    0.0339 C   0  0  0  0  0  0  0  0  0  0  0  0
    2.0790   -1.2241    0.3016 C   0  0  0  0  0  0  0  0  0  0  0  0
    1.0001   -2.0863    0.4277 C   0  0  0  0  0  0  0  0  0  0  0  0
   -0.2821   -1.5699    0.2867 C   0  0  0  0  0  0  0  0  0  0  0  0
   -1.4304   -2.4105    0.4064 C   0  0  0  0  0  0  0  0  0  0  0  0
   -2.6831   -1.9234    0.2719 C   0  0  0  0  0  0  0  0  0  0  0  0
   -2.9147   -0.5401    0.0030 C   0  0  0  0  0  0  0  0  0  0  0  0
   -4.1993   -0.0218   -0.1384 C   0  0  0  0  0  0  0  0  0  0  0  0
   -4.3962    1.3253   -0.3992 C   0  0  0  0  0  0  0  0  0  0  0  0
   -3.3191    2.1773   -0.5235 C   0  0  0  0  0  0  0  0  0  0  0  0
   -2.0096    1.7003   -0.3890 C   0  0  0  0  0  0  0  0  0  0  0  0
   -0.8822    2.5555   -0.5122 C   0  0  0  0  0  0  0  0  0  0  0  0
    0.3801    2.0745   -0.3786 C   0  0  0  0  0  0  0  0  0  0  0  0
    0.6157    0.7029   -0.1118 C   0  0  0  0  0  0  0  0  0  0  0  0
   -0.4803   -0.1787    0.0174 C   0  0  0  0  0  0  0  0  0  0  0  0
   -1.7977    0.3245   -0.1222 C   0  0  0  0  0  0  0  0  0  0  0  0
    3.4086   -1.4729    0.3937 N   0  0  0  0  0  0  0  0  0  0  0  0
    5.9847    0.7176    0.0684 H   0  0  0  0  0  0  0  0  0  0  0  0
    3.4639    1.7448   -0.2118 H   0  0  0  0  0  0  0  0  0  0  0  0
    1.1480   -3.1366    0.6309 H   0  0  0  0  0  0  0  0  0  0  0  0
   -1.2661   -3.4593    0.6099 H   0  0  0  0  0  0  0  0  0  0  0  0
   -3.5416   -2.5732    0.3654 H   0  0  0  0  0  0  0  0  0  0  0  0
   -5.0483   -0.6836   -0.0423 H   0  0  0  0  0  0  0  0  0  0  0  0
   -5.4008    1.7082   -0.5056 H   0  0  0  0  0  0  0  0  0  0  0  0
   -3.4758    3.2269   -0.7269 H   0  0  0  0  0  0  0  0  0  0  0  0
   -1.0537    3.6030   -0.7157 H   0  0  0  0  0  0  0  0  0  0  0  0
    1.2302    2.7330   -0.4740 H   0  0  0  0  0  0  0  0  0  0  0  0
    3.8549   -2.3571    0.5756 H   0  0  0  0  0  0  0  0  0  0  0  0
  1  2  2  0  0  0  0
  2  3  1  0  0  0  0
  3  4  2  0  0  0  0
  4  5  1  0  0  0  0
  5  6  2  0  0  0  0
  6  7  1  0  0  0  0
  7  8  2  0  0  0  0
  8  9  1  0  0  0  0
  9 10  2  0  0  0  0
 10 11  1  0  0  0  0
 11 12  2  0  0  0  0
 12 13  1  0  0  0  0
 13 14  2  0  0  0  0
 14 15  1  0  0  0  0
 15 16  2  0  0  0  0
 16 17  1  0  0  0  0
 17 18  2  0  0  0  0
 18 19  1  0  0  0  0
 19 20  2  0  0  0  0
  6 21  1  0  0  0  0
 21  3  1  0  0  0  0
 18  5  1  0  0  0  0
 19  8  1  0  0  0  0
 20 11  1  0  0  0  0
 20 15  1  0  0  0  0
  2 22  1  0  0  0  0
  4 23  1  0  0  0  0
  7 24  1  0  0  0  0
  9 25  1  0  0  0  0
 10 26  1  0  0  0  0
 12 27  1  0  0  0  0
 13 28  1  0  0  0  0
 14 29  1  0  0  0  0
 16 30  1  0  0  0  0
 17 31  1  0  0  0  0
 21 32  1  0  0  0  0
M  END
