
  xtb     03212210403D
 energy: -65.231598831085 gnorm: 0.000202713432 xtb: 6.4.1 (afa7bdf)
 39 42  0     0  0            999 V2000
   -5.8717    0.8829   -0.5466 C   0  0  0  0  0  0  0  0  0  0  0  0
   -5.0589    0.8635    0.7069 C   0  0  0  0  0  0  0  0  0  0  0  0
   -5.5818    1.2407    1.8939 C   0  0  0  0  0  0  0  0  0  0  0  0
   -4.8234    1.2324    3.1305 C   0  0  0  0  0  0  0  0  0  0  0  0
   -5.2519    1.5605    4.2088 O   0  0  0  0  0  0  0  0  0  0  0  0
   -3.5217    0.8175    3.0493 O   0  0  0  0  0  0  0  0  0  0  0  0
   -2.9638    0.4316    1.8807 C   0  0  0  0  0  0  0  0  0  0  0  0
   -1.6351    0.0251    1.9185 C   0  0  0  0  0  0  0  0  0  0  0  0
   -0.9972   -0.3845    0.7567 C   0  0  0  0  0  0  0  0  0  0  0  0
    0.3870   -0.8104    0.8182 C   0  0  0  0  0  0  0  0  0  0  0  0
    1.2377   -1.2694   -0.1767 C   0  0  0  0  0  0  0  0  0  0  0  0
    2.3960   -1.5286    0.4631 N   0  0  0  0  0  0  0  0  0  0  0  0
    3.6436   -1.9765   -0.0965 C   0  0  0  0  0  0  0  0  0  0  0  0
    4.3059   -0.8625   -0.8710 C   0  0  0  0  0  0  0  0  0  0  0  0
    4.6058   -1.0033   -2.2177 C   0  0  0  0  0  0  0  0  0  0  0  0
    5.2005    0.0372   -2.9114 C   0  0  0  0  0  0  0  0  0  0  0  0
    5.4894    1.2264   -2.2653 C   0  0  0  0  0  0  0  0  0  0  0  0
    5.1856    1.3739   -0.9217 C   0  0  0  0  0  0  0  0  0  0  0  0
    4.5977    0.3335   -0.2261 C   0  0  0  0  0  0  0  0  0  0  0  0
    2.2737   -1.2417    1.7546 N   0  0  0  0  0  0  0  0  0  0  0  0
    1.0934   -0.8206    1.9774 N   0  0  0  0  0  0  0  0  0  0  0  0
   -1.7047   -0.3816   -0.4525 C   0  0  0  0  0  0  0  0  0  0  0  0
   -3.0174    0.0189   -0.4905 C   0  0  0  0  0  0  0  0  0  0  0  0
   -3.6815    0.4338    0.6711 C   0  0  0  0  0  0  0  0  0  0  0  0
   -6.8808    1.2274   -0.3389 H   0  0  0  0  0  0  0  0  0  0  0  0
   -5.9242   -0.1155   -0.9787 H   0  0  0  0  0  0  0  0  0  0  0  0
   -5.4187    1.5472   -1.2812 H   0  0  0  0  0  0  0  0  0  0  0  0
   -6.6046    1.5714    1.9861 H   0  0  0  0  0  0  0  0  0  0  0  0
   -1.1002    0.0276    2.8540 H   0  0  0  0  0  0  0  0  0  0  0  0
    1.1183   -1.4240   -1.2277 H   0  0  0  0  0  0  0  0  0  0  0  0
    4.2693   -2.2784    0.7484 H   0  0  0  0  0  0  0  0  0  0  0  0
    3.4632   -2.8417   -0.7410 H   0  0  0  0  0  0  0  0  0  0  0  0
    4.3805   -1.9304   -2.7259 H   0  0  0  0  0  0  0  0  0  0  0  0
    5.4351   -0.0817   -3.9588 H   0  0  0  0  0  0  0  0  0  0  0  0
    5.9504    2.0380   -2.8078 H   0  0  0  0  0  0  0  0  0  0  0  0
    5.4087    2.3003   -0.4143 H   0  0  0  0  0  0  0  0  0  0  0  0
    4.3585    0.4429    0.8220 H   0  0  0  0  0  0  0  0  0  0  0  0
   -1.2152   -0.6964   -1.3612 H   0  0  0  0  0  0  0  0  0  0  0  0
   -3.5473    0.0140   -1.4299 H   0  0  0  0  0  0  0  0  0  0  0  0
  1  2  1  0  0  0  0
  2  3  2  0  0  0  0
  3  4  1  0  0  0  0
  4  5  2  0  0  0  0
  4  6  1  0  0  0  0
  6  7  1  0  0  0  0
  7  8  2  0  0  0  0
  8  9  1  0  0  0  0
  9 10  1  0  0  0  0
 10 11  2  0  0  0  0
 11 12  1  0  0  0  0
 12 13  1  0  0  0  0
 13 14  1  0  0  0  0
 14 15  2  0  0  0  0
 15 16  1  0  0  0  0
 16 17  2  0  0  0  0
 17 18  1  0  0  0  0
 18 19  2  0  0  0  0
 12 20  1  0  0  0  0
 20 21  2  0  0  0  0
  9 22  2  0  0  0  0
 22 23  1  0  0  0  0
 23 24  2  0  0  0  0
 24  2  1  0  0  0  0
 24  7  1  0  0  0  0
 21 10  1  0  0  0  0
 19 14  1  0  0  0  0
  1 25  1  0  0  0  0
  1 26  1  0  0  0  0
  1 27  1  0  0  0  0
  3 28  1  0  0  0  0
  8 29  1  0  0  0  0
 11 30  1  0  0  0  0
 13 31  1  0  0  0  0
 13 32  1  0  0  0  0
 15 33  1  0  0  0  0
 16 34  1  0  0  0  0
 17 35  1  0  0  0  0
 18 36  1  0  0  0  0
 19 37  1  0  0  0  0
 22 38  1  0  0  0  0
 23 39  1  0  0  0  0
M  END
