
  xtb     03212210553D
 energy: -39.768706501668 gnorm: 0.000539727820 xtb: 6.4.1 (afa7bdf)
 27 28  0     0  0            999 V2000
   -1.2801    2.2300   -1.1314 C   0  0  0  0  0  0  0  0  0  0  0  0
   -1.7931    1.1132   -0.2898 C   0  0  0  0  0  0  0  0  0  0  0  0
   -3.0705    0.8594    0.1229 C   0  0  0  0  0  0  0  0  0  0  0  0
   -3.0531   -0.3460    0.8581 C   0  0  0  0  0  0  0  0  0  0  0  0
   -1.7702   -0.8155    0.8565 C   0  0  0  0  0  0  0  0  0  0  0  0
   -1.2071   -2.0199    1.5275 C   0  0  0  0  0  0  0  0  0  0  0  0
   -0.9945    0.0826    0.1559 N   0  0  0  0  0  0  0  0  0  0  0  0
    0.3819   -0.0326   -0.0636 C   0  0  0  0  0  0  0  0  0  0  0  0
    1.2389    1.0102    0.2882 C   0  0  0  0  0  0  0  0  0  0  0  0
    2.5963    0.9000    0.0733 C   0  0  0  0  0  0  0  0  0  0  0  0
    3.1186   -0.2623   -0.4962 C   0  0  0  0  0  0  0  0  0  0  0  0
    4.5097   -0.3799   -0.7143 C   0  0  0  0  0  0  0  0  0  0  0  0
    5.6382   -0.4771   -0.8921 N   0  0  0  0  0  0  0  0  0  0  0  0
    2.2648   -1.3084   -0.8501 C   0  0  0  0  0  0  0  0  0  0  0  0
    0.9079   -1.1904   -0.6364 C   0  0  0  0  0  0  0  0  0  0  0  0
   -0.9233    3.0618   -0.5223 H   0  0  0  0  0  0  0  0  0  0  0  0
   -0.4613    1.8978   -1.7676 H   0  0  0  0  0  0  0  0  0  0  0  0
   -2.0839    2.6024   -1.7616 H   0  0  0  0  0  0  0  0  0  0  0  0
   -3.9293    1.4689   -0.0780 H   0  0  0  0  0  0  0  0  0  0  0  0
   -3.8930   -0.8122    1.3341 H   0  0  0  0  0  0  0  0  0  0  0  0
   -1.8655   -2.3158    2.3405 H   0  0  0  0  0  0  0  0  0  0  0  0
   -0.2175   -1.8146    1.9341 H   0  0  0  0  0  0  0  0  0  0  0  0
   -1.1247   -2.8643    0.8417 H   0  0  0  0  0  0  0  0  0  0  0  0
    0.8333    1.8990    0.7456 H   0  0  0  0  0  0  0  0  0  0  0  0
    3.2617    1.7044    0.3499 H   0  0  0  0  0  0  0  0  0  0  0  0
    2.6730   -2.2025   -1.2974 H   0  0  0  0  0  0  0  0  0  0  0  0
    0.2428   -1.9882   -0.9275 H   0  0  0  0  0  0  0  0  0  0  0  0
  1  2  1  0  0  0  0
  2  3  2  0  0  0  0
  3  4  1  0  0  0  0
  4  5  2  0  0  0  0
  5  6  1  0  0  0  0
  5  7  1  0  0  0  0
  7  8  1  0  0  0  0
  8  9  2  0  0  0  0
  9 10  1  0  0  0  0
 10 11  2  0  0  0  0
 11 12  1  0  0  0  0
 12 13  3  0  0  0  0
 11 14  1  0  0  0  0
 14 15  2  0  0  0  0
  7  2  1  0  0  0  0
 15  8  1  0  0  0  0
  1 16  1  0  0  0  0
  1 17  1  0  0  0  0
  1 18  1  0  0  0  0
  3 19  1  0  0  0  0
  4 20  1  0  0  0  0
  6 21  1  0  0  0  0
  6 22  1  0  0  0  0
  6 23  1  0  0  0  0
  9 24  1  0  0  0  0
 10 25  1  0  0  0  0
 14 26  1  0  0  0  0
 15 27  1  0  0  0  0
M  END
