
  xtb     03212210433D
 energy: -84.414187555078 gnorm: 0.000589624327 xtb: 6.4.1 (afa7bdf)
 43 46  0     0  0            999 V2000
    0.1841   -4.5962    0.0562 C   0  0  0  0  0  0  0  0  0  0  0  0
   -1.0757   -3.9605    0.2123 O   0  0  0  0  0  0  0  0  0  0  0  0
   -1.2611   -2.6572    0.1745 C   0  0  0  0  0  0  0  0  0  0  0  0
   -0.4089   -1.6306    0.0296 N   0  0  0  0  0  4  0  0  0  0  0  0
   -1.1578   -0.4556    0.0494 C   0  0  0  0  0  0  0  0  0  0  0  0
   -0.5721    0.8009   -0.0721 C   0  0  0  0  0  0  0  0  0  0  0  0
   -1.4204    2.0012   -0.0794 C   0  0  0  0  0  0  0  0  0  0  0  0
   -1.1807    3.0380    0.8199 C   0  0  0  0  0  0  0  0  0  0  0  0
   -1.9854    4.1623    0.8185 C   0  0  0  0  0  0  0  0  0  0  0  0
   -3.0307    4.2702   -0.0839 C   0  0  0  0  0  0  0  0  0  0  0  0
   -3.2717    3.2458   -0.9846 C   0  0  0  0  0  0  0  0  0  0  0  0
   -2.4758    2.1154   -0.9816 C   0  0  0  0  0  0  0  0  0  0  0  0
    0.8105    0.9299   -0.1883 C   0  0  0  0  0  0  0  0  0  0  0  0
    1.5733    2.0938   -0.3848 C   0  0  0  0  0  0  0  0  0  0  0  0
    2.8874    1.6926   -0.4561 C   0  0  0  0  0  0  0  0  0  0  0  0
    4.3035    2.7094   -0.7349 S   0  0  0  0  0  0  0  0  0  0  0  0
    5.2919    2.0497    0.4551 C   0  0  0  0  0  0  0  0  0  0  0  0
    5.9690    1.6239    1.2754 N   0  0  0  0  0  0  0  0  0  0  0  0
    2.9196    0.2792   -0.3193 C   0  0  0  0  0  0  0  0  0  0  0  0
    4.0738   -0.3468   -0.3776 O   0  0  0  0  0  0  0  0  0  0  0  0
    4.2608   -1.7209   -0.0773 C   0  0  0  0  0  0  0  0  0  0  0  0
    1.6645   -0.1706   -0.1556 N   0  0  0  0  0  0  0  0  0  0  0  0
    1.1436   -1.6300   -0.0540 B   0  0  0  0  0  4  0  0  0  0  0  0
    1.5439   -2.3264   -1.1806 F   0  0  0  0  0  0  0  0  0  0  0  0
    1.6495   -2.2277    1.0850 F   0  0  0  0  0  0  0  0  0  0  0  0
   -2.5155   -0.7789    0.2314 C   0  0  0  0  0  0  0  0  0  0  0  0
   -2.5813   -2.1503    0.3015 C   0  0  0  0  0  0  0  0  0  0  0  0
   -3.9606   -3.2263    0.5149 S   0  0  0  0  0  0  0  0  0  0  0  0
   -5.1612   -2.0592    0.3689 C   0  0  0  0  0  0  0  0  0  0  0  0
   -5.9815   -1.2649    0.2672 N   0  0  0  0  0  0  0  0  0  0  0  0
    0.6209   -4.3693   -0.9159 H   0  0  0  0  0  0  0  0  0  0  0  0
   -0.0333   -5.6605    0.1264 H   0  0  0  0  0  0  0  0  0  0  0  0
    0.8751   -4.3062    0.8467 H   0  0  0  0  0  0  0  0  0  0  0  0
   -0.3783    2.9430    1.5360 H   0  0  0  0  0  0  0  0  0  0  0  0
   -1.7968    4.9559    1.5259 H   0  0  0  0  0  0  0  0  0  0  0  0
   -3.6564    5.1498   -0.0845 H   0  0  0  0  0  0  0  0  0  0  0  0
   -4.0836    3.3259   -1.6915 H   0  0  0  0  0  0  0  0  0  0  0  0
   -2.6521    1.3242   -1.6945 H   0  0  0  0  0  0  0  0  0  0  0  0
    1.1950    3.0916   -0.4754 H   0  0  0  0  0  0  0  0  0  0  0  0
    5.3367   -1.8710   -0.1421 H   0  0  0  0  0  0  0  0  0  0  0  0
    3.7509   -2.3583   -0.7985 H   0  0  0  0  0  0  0  0  0  0  0  0
    3.9145   -1.9507    0.9298 H   0  0  0  0  0  0  0  0  0  0  0  0
   -3.3277   -0.0848    0.3082 H   0  0  0  0  0  0  0  0  0  0  0  0
  1  2  1  0  0  0  0
  2  3  1  0  0  0  0
  3  4  2  0  0  0  0
  4  5  1  0  0  0  0
  5  6  2  0  0  0  0
  6  7  1  0  0  0  0
  7  8  2  0  0  0  0
  8  9  1  0  0  0  0
  9 10  2  0  0  0  0
 10 11  1  0  0  0  0
 11 12  2  0  0  0  0
  6 13  1  0  0  0  0
 13 14  2  0  0  0  0
 14 15  1  0  0  0  0
 15 16  1  0  0  0  0
 16 17  1  0  0  0  0
 17 18  3  0  0  0  0
 15 19  2  0  0  0  0
 19 20  1  0  0  0  0
 20 21  1  0  0  0  0
 19 22  1  0  0  0  0
 22 23  1  0  0  0  0
 23 24  1  0  0  0  0
 23 25  1  0  0  0  0
  5 26  1  0  0  0  0
 26 27  2  0  0  0  0
 27 28  1  0  0  0  0
 28 29  1  0  0  0  0
 29 30  3  0  0  0  0
 27  3  1  0  0  0  0
 23  4  1  0  0  0  0
 12  7  1  0  0  0  0
 22 13  1  0  0  0  0
  1 31  1  0  0  0  0
  1 32  1  0  0  0  0
  1 33  1  0  0  0  0
  8 34  1  0  0  0  0
  9 35  1  0  0  0  0
 10 36  1  0  0  0  0
 11 37  1  0  0  0  0
 12 38  1  0  0  0  0
 14 39  1  0  0  0  0
 21 40  1  0  0  0  0
 21 41  1  0  0  0  0
 21 42  1  0  0  0  0
 26 43  1  0  0  0  0
M  CHG  1   4   1
M  CHG  1  23  -1
M  END
