
  xtb     03212212233D
 energy: -93.107940025755 gnorm: 0.000135782581 xtb: 6.4.1 (afa7bdf)
 50 52  0     0  0            999 V2000
   -8.1392    0.2165    0.6326 C   0  0  0  0  0  0  0  0  0  0  0  0
   -6.9732    0.7029   -0.2203 C   0  0  0  0  0  0  0  0  0  0  0  0
   -5.9565   -0.3234   -0.3617 N   0  0  0  0  0  0  0  0  0  0  0  0
   -5.2812   -0.6065    0.8962 C   0  0  0  0  0  0  0  0  0  0  0  0
   -3.9176   -1.2530    0.6753 C   0  0  0  0  0  0  0  0  0  0  0  0
   -3.0406   -0.3378   -0.0251 N   0  0  0  0  0  0  0  0  0  0  0  0
   -1.6946   -0.3524    0.1331 C   0  0  0  0  0  0  0  0  0  0  0  0
   -0.8973    0.7208   -0.3241 C   0  0  0  0  0  0  0  0  0  0  0  0
    0.4606    0.7121   -0.1673 C   0  0  0  0  0  0  0  0  0  0  0  0
    1.1084   -0.3712    0.4584 C   0  0  0  0  0  0  0  0  0  0  0  0
    2.4508   -0.4799    0.6452 N   0  0  0  0  0  0  0  0  0  0  0  0
    3.1842    0.4969    0.2901 N   0  0  0  0  0  0  0  0  0  0  0  0
    4.5377    0.3608    0.2849 C   0  0  0  0  0  0  0  0  0  0  0  0
    5.3244    1.4915    0.5519 C   0  0  0  0  0  0  0  0  0  0  0  0
    6.6949    1.4243    0.4079 C   0  0  0  0  0  0  0  0  0  0  0  0
    7.5588    2.6159    0.7145 C   0  0  0  0  0  0  0  0  0  0  0  0
    6.8590    3.7206    1.0044 F   0  0  0  0  0  0  0  0  0  0  0  0
    8.3653    2.9364   -0.3125 F   0  0  0  0  0  0  0  0  0  0  0  0
    8.3691    2.3954    1.7665 F   0  0  0  0  0  0  0  0  0  0  0  0
    7.3241    0.2589   -0.0215 C   0  0  0  0  0  0  0  0  0  0  0  0
    6.5384   -0.8537   -0.2990 C   0  0  0  0  0  0  0  0  0  0  0  0
    7.2281   -2.1126   -0.7470 C   0  0  0  0  0  0  0  0  0  0  0  0
    6.3811   -3.0606   -1.1697 F   0  0  0  0  0  0  0  0  0  0  0  0
    8.0860   -1.8920   -1.7580 F   0  0  0  0  0  0  0  0  0  0  0  0
    7.9546   -2.6690    0.2408 F   0  0  0  0  0  0  0  0  0  0  0  0
    5.1671   -0.8212   -0.1434 C   0  0  0  0  0  0  0  0  0  0  0  0
    0.3205   -1.4398    0.9185 C   0  0  0  0  0  0  0  0  0  0  0  0
   -1.0393   -1.4330    0.7610 C   0  0  0  0  0  0  0  0  0  0  0  0
   -3.7020    0.5634   -0.9456 C   0  0  0  0  0  0  0  0  0  0  0  0
   -5.0023   -0.0864   -1.4301 C   0  0  0  0  0  0  0  0  0  0  0  0
   -8.9537    0.9343    0.5822 H   0  0  0  0  0  0  0  0  0  0  0  0
   -7.8487    0.1019    1.6732 H   0  0  0  0  0  0  0  0  0  0  0  0
   -8.4911   -0.7412    0.2598 H   0  0  0  0  0  0  0  0  0  0  0  0
   -6.5639    1.6327    0.2166 H   0  0  0  0  0  0  0  0  0  0  0  0
   -7.3470    0.9339   -1.2204 H   0  0  0  0  0  0  0  0  0  0  0  0
   -5.9030   -1.2907    1.4802 H   0  0  0  0  0  0  0  0  0  0  0  0
   -5.1394    0.3139    1.4899 H   0  0  0  0  0  0  0  0  0  0  0  0
   -4.0411   -2.1900    0.1174 H   0  0  0  0  0  0  0  0  0  0  0  0
   -3.4878   -1.4837    1.6525 H   0  0  0  0  0  0  0  0  0  0  0  0
   -1.3641    1.5786   -0.7818 H   0  0  0  0  0  0  0  0  0  0  0  0
    1.0628    1.5408   -0.5081 H   0  0  0  0  0  0  0  0  0  0  0  0
    4.8443    2.3987    0.8834 H   0  0  0  0  0  0  0  0  0  0  0  0
    8.3950    0.2236   -0.1435 H   0  0  0  0  0  0  0  0  0  0  0  0
    4.5570   -1.6855   -0.3570 H   0  0  0  0  0  0  0  0  0  0  0  0
    0.8163   -2.2750    1.3883 H   0  0  0  0  0  0  0  0  0  0  0  0
   -1.6073   -2.2844    1.0993 H   0  0  0  0  0  0  0  0  0  0  0  0
   -3.0552    0.7485   -1.8062 H   0  0  0  0  0  0  0  0  0  0  0  0
   -3.9253    1.5255   -0.4636 H   0  0  0  0  0  0  0  0  0  0  0  0
   -4.7578   -1.0487   -1.8948 H   0  0  0  0  0  0  0  0  0  0  0  0
   -5.4592    0.5429   -2.1950 H   0  0  0  0  0  0  0  0  0  0  0  0
  1  2  1  0  0  0  0
  2  3  1  0  0  0  0
  3  4  1  0  0  0  0
  4  5  1  0  0  0  0
  5  6  1  0  0  0  0
  6  7  1  0  0  0  0
  7  8  2  0  0  0  0
  8  9  1  0  0  0  0
  9 10  2  0  0  0  0
 10 11  1  0  0  0  0
 11 12  2  0  0  0  0
 12 13  1  0  0  0  0
 13 14  2  0  0  0  0
 14 15  1  0  0  0  0
 15 16  1  0  0  0  0
 16 17  1  0  0  0  0
 16 18  1  0  0  0  0
 16 19  1  0  0  0  0
 15 20  2  0  0  0  0
 20 21  1  0  0  0  0
 21 22  1  0  0  0  0
 22 23  1  0  0  0  0
 22 24  1  0  0  0  0
 22 25  1  0  0  0  0
 21 26  2  0  0  0  0
 10 27  1  0  0  0  0
 27 28  2  0  0  0  0
  6 29  1  0  0  0  0
 29 30  1  0  0  0  0
 30  3  1  0  0  0  0
 28  7  1  0  0  0  0
 26 13  1  0  0  0  0
  1 31  1  0  0  0  0
  1 32  1  0  0  0  0
  1 33  1  0  0  0  0
  2 34  1  0  0  0  0
  2 35  1  0  0  0  0
  4 36  1  0  0  0  0
  4 37  1  0  0  0  0
  5 38  1  0  0  0  0
  5 39  1  0  0  0  0
  8 40  1  0  0  0  0
  9 41  1  0  0  0  0
 14 42  1  0  0  0  0
 20 43  1  0  0  0  0
 26 44  1  0  0  0  0
 27 45  1  0  0  0  0
 28 46  1  0  0  0  0
 29 47  1  0  0  0  0
 29 48  1  0  0  0  0
 30 49  1  0  0  0  0
 30 50  1  0  0  0  0
M  END
