
  xtb     03212211233D
 energy: -42.700357336753 gnorm: 0.000146036820 xtb: 6.4.1 (afa7bdf)
 31 33  0     0  0            999 V2000
   -3.9539   -1.1565    0.1074 C   0  0  0  0  0  0  0  0  0  0  0  0
   -3.3379    0.1451    0.0666 N   0  0  0  0  0  0  0  0  0  0  0  0
   -4.1790    1.3126   -0.0013 C   0  0  0  0  0  0  0  0  0  0  0  0
   -1.9703    0.2675    0.0689 C   0  0  0  0  0  0  0  0  0  0  0  0
   -1.3562    1.5259   -0.0501 C   0  0  0  0  0  0  0  0  0  0  0  0
    0.0167    1.6694   -0.0458 C   0  0  0  0  0  0  0  0  0  0  0  0
    0.8202    0.5475    0.0763 C   0  0  0  0  0  0  0  0  0  0  0  0
    0.2207   -0.7153    0.1936 C   0  0  0  0  0  0  0  0  0  0  0  0
   -1.1453   -0.8645    0.1921 C   0  0  0  0  0  0  0  0  0  0  0  0
    1.2758   -1.7789    0.3122 C   0  0  0  0  0  0  0  0  0  0  0  0
    2.5490   -0.9833    0.2499 C   0  0  0  0  0  0  0  0  0  0  0  0
    3.8533   -1.4222    0.3099 C   0  0  0  0  0  0  0  0  0  0  0  0
    4.8783   -0.4877    0.2313 C   0  0  0  0  0  0  0  0  0  0  0  0
    4.5957    0.8626    0.0952 C   0  0  0  0  0  0  0  0  0  0  0  0
    3.2868    1.3122    0.0339 C   0  0  0  0  0  0  0  0  0  0  0  0
    2.2600    0.3844    0.1113 C   0  0  0  0  0  0  0  0  0  0  0  0
   -5.0321   -1.0521    0.0124 H   0  0  0  0  0  0  0  0  0  0  0  0
   -3.6016   -1.7858   -0.7159 H   0  0  0  0  0  0  0  0  0  0  0  0
   -3.7437   -1.6697    1.0525 H   0  0  0  0  0  0  0  0  0  0  0  0
   -3.9534    2.0069    0.8137 H   0  0  0  0  0  0  0  0  0  0  0  0
   -4.0578    1.8416   -0.9533 H   0  0  0  0  0  0  0  0  0  0  0  0
   -5.2212    1.0156    0.0904 H   0  0  0  0  0  0  0  0  0  0  0  0
   -1.9598    2.4125   -0.1529 H   0  0  0  0  0  0  0  0  0  0  0  0
    0.4530    2.6532   -0.1396 H   0  0  0  0  0  0  0  0  0  0  0  0
   -1.5672   -1.8516    0.2906 H   0  0  0  0  0  0  0  0  0  0  0  0
    1.2128   -2.5047   -0.5027 H   0  0  0  0  0  0  0  0  0  0  0  0
    1.1907   -2.3319    1.2511 H   0  0  0  0  0  0  0  0  0  0  0  0
    4.0798   -2.4741    0.4162 H   0  0  0  0  0  0  0  0  0  0  0  0
    5.9063   -0.8170    0.2768 H   0  0  0  0  0  0  0  0  0  0  0  0
    5.4084    1.5727    0.0364 H   0  0  0  0  0  0  0  0  0  0  0  0
    3.0716    2.3654   -0.0721 H   0  0  0  0  0  0  0  0  0  0  0  0
  1  2  1  0  0  0  0
  2  3  1  0  0  0  0
  2  4  1  0  0  0  0
  4  5  2  0  0  0  0
  5  6  1  0  0  0  0
  6  7  2  0  0  0  0
  7  8  1  0  0  0  0
  8  9  2  0  0  0  0
  8 10  1  0  0  0  0
 10 11  1  0  0  0  0
 11 12  2  0  0  0  0
 12 13  1  0  0  0  0
 13 14  2  0  0  0  0
 14 15  1  0  0  0  0
 15 16  2  0  0  0  0
  9  4  1  0  0  0  0
 16 11  1  0  0  0  0
 16  7  1  0  0  0  0
  1 17  1  0  0  0  0
  1 18  1  0  0  0  0
  1 19  1  0  0  0  0
  3 20  1  0  0  0  0
  3 21  1  0  0  0  0
  3 22  1  0  0  0  0
  5 23  1  0  0  0  0
  6 24  1  0  0  0  0
  9 25  1  0  0  0  0
 10 26  1  0  0  0  0
 10 27  1  0  0  0  0
 12 28  1  0  0  0  0
 13 29  1  0  0  0  0
 14 30  1  0  0  0  0
 15 31  1  0  0  0  0
M  END
